1



                                 *********************************************

                                    NUMERICAL ELECTROMAGNETICS CODE (NEC-2D)

                                 *********************************************




                                     - - - - COMMENTS - - - -


                          Dipole in free space with insulation                                       
                                                                                                     
                                                                                                     
                                                                                                     
                                                                                                     
                                                                                                     




                                 - - - STRUCTURE SPECIFICATION - - -

                                     COORDINATES MUST BE INPUT IN
                                     METERS OR BE SCALED TO METERS
                                     BEFORE STRUCTURE INPUT IS ENDED


  WIRE                                                                               NO. OF    FIRST  LAST     TAG
  NO.        X1         Y1         Z1          X2         Y2         Z2      RADIUS   SEG.     SEG.   SEG.     NO.
     1   -0.06246    0.00000    0.00000     0.06246    0.00000    0.00000    0.01270     21        1    21       1

   TOTAL SEGMENTS USED=   21     NO. SEG. IN A SYMMETRIC CELL=   21     SYMMETRY FLAG=  0


         - MULTIPLE WIRE JUNCTIONS -
 JUNCTION    SEGMENTS  (- FOR END 1, + FOR END 2)
  NONE




                                 - - - - SEGMENTATION DATA - - - -

                                        COORDINATES IN METERS

                         I+ AND I- INDICATE THE SEGMENTS BEFORE AND AFTER I


  SEG.   COORDINATES OF SEG. CENTER     SEG.     ORIENTATION ANGLES    WIRE    CONNECTION DATA   TAG
  NO.       X         Y         Z       LENGTH     ALPHA     BETA      RADIUS    I-   I    I+    NO.
     1  -0.05948   0.00000   0.00000   0.00595    0.00000   0.00000   0.01270     0    1    2      1
     2  -0.05354   0.00000   0.00000   0.00595    0.00000   0.00000   0.01270     1    2    3      1
     3  -0.04759   0.00000   0.00000   0.00595    0.00000   0.00000   0.01270     2    3    4      1
     4  -0.04164   0.00000   0.00000   0.00595    0.00000   0.00000   0.01270     3    4    5      1
     5  -0.03569   0.00000   0.00000   0.00595    0.00000   0.00000   0.01270     4    5    6      1
     6  -0.02974   0.00000   0.00000   0.00595    0.00000   0.00000   0.01270     5    6    7      1
     7  -0.02379   0.00000   0.00000   0.00595    0.00000   0.00000   0.01270     6    7    8      1
     8  -0.01785   0.00000   0.00000   0.00595    0.00000   0.00000   0.01270     7    8    9      1
     9  -0.01190   0.00000   0.00000   0.00595    0.00000   0.00000   0.01270     8    9   10      1
    10  -0.00595   0.00000   0.00000   0.00595    0.00000   0.00000   0.01270     9   10   11      1
    11   0.00000   0.00000   0.00000   0.00595    0.00000   0.00000   0.01270    10   11   12      1
    12   0.00595   0.00000   0.00000   0.00595    0.00000   0.00000   0.01270    11   12   13      1
    13   0.01190   0.00000   0.00000   0.00595    0.00000   0.00000   0.01270    12   13   14      1
    14   0.01785   0.00000   0.00000   0.00595    0.00000   0.00000   0.01270    13   14   15      1
    15   0.02379   0.00000   0.00000   0.00595    0.00000   0.00000   0.01270    14   15   16      1
    16   0.02974   0.00000   0.00000   0.00595    0.00000   0.00000   0.01270    15   16   17      1
    17   0.03569   0.00000   0.00000   0.00595    0.00000   0.00000   0.01270    16   17   18      1
    18   0.04164   0.00000   0.00000   0.00595    0.00000   0.00000   0.01270    17   18   19      1
    19   0.04759   0.00000   0.00000   0.00595    0.00000   0.00000   0.01270    18   19   20      1
    20   0.05354   0.00000   0.00000   0.00595    0.00000   0.00000   0.01270    19   20   21      1
    21   0.05948   0.00000   0.00000   0.00595    0.00000   0.00000   0.01270    20   21    0      1






 ***** DATA CARD NO.  1   LD   5     1     0     0  2.50000E+06  0.00000E+00  0.00000E+00  0.00000E+00  0.00000E+00  0.00000E+00
 ***** DATA CARD NO.  2   LD   2     1     0     0  0.00000E+00  0.00000E+00  0.00000E+00  0.00000E+00  0.00000E+00  0.00000E+00
 ***** DATA CARD NO.  3   GN  -1     0     0     0  0.00000E+00  0.00000E+00  0.00000E+00  0.00000E+00  0.00000E+00  0.00000E+00
 ***** DATA CARD NO.  4   EK   0     0     0     0  0.00000E+00  0.00000E+00  0.00000E+00  0.00000E+00  0.00000E+00  0.00000E+00
 ***** DATA CARD NO.  5   EX   0     1    11     0  1.00000E+00  0.00000E+00  0.00000E+00  0.00000E+00  0.00000E+00  0.00000E+00
 ***** DATA CARD NO.  6   FR   0     0     0     0  6.00000E+02  0.00000E+00  0.00000E+00  0.00000E+00  0.00000E+00  0.00000E+00
 ***** DATA CARD NO.  7   RP   0    37    73  1003 -1.80000E+02  0.00000E+00  5.00000E+00  5.00000E+00  0.00000E+00  0.00000E+00




                                 - - - - - - FREQUENCY - - - - - -

                                    FREQUENCY= 6.0000E+02 MHZ
                                    WAVELENGTH= 4.9967E-01 METERS




                    APPROXIMATE INTEGRATION EMPLOYED FOR SEGMENTS MORE THAN   1.000 WAVELENGTHS APART

                    THE EXTENDED THIN WIRE KERNEL WILL BE USED



                               - - - STRUCTURE IMPEDANCE LOADING - - -


       LOCATION          RESISTANCE   INDUCTANCE  CAPACITANCE       IMPEDANCE (OHMS)     CONDUCTIVITY    TYPE
    ITAG FROM THRU          OHMS        HENRYS       FARADS        REAL      IMAGINARY    MHOS/METER

       1                                                                                 2.5000E+06     WIRE  

       1                                                                                               SERIES (PER METER) 

          NOTE, SOME OF THE ABOVE SEGMENTS HAVE BEEN LOADED TWICE - IMPEDANCES ADDED



                                  - - - ANTENNA ENVIRONMENT - - -

                                            FREE SPACE



                                - - - MATRIX TIMING - - -

                        FILL=    0.000 SEC.,  FACTOR=    0.000 SEC.



                                          - - - ANTENNA INPUT PARAMETERS - - -

   TAG   SEG.    VOLTAGE (VOLTS)         CURRENT (AMPS)         IMPEDANCE (OHMS)        ADMITTANCE (MHOS)      POWER
   NO.   NO.    REAL        IMAG.       REAL        IMAG.       REAL        IMAG.       REAL        IMAG.     (WATTS)
     1    11 1.00000E+00 0.00000E+00 1.67036E-03 1.65090E-02 6.06659E+00-5.99592E+01 1.67036E-03 1.65090E-02 8.35179E-04



                             - - - CURRENTS AND LOCATION - - -

                                 DISTANCES IN WAVELENGTHS


  SEG.  TAG    COORD. OF SEG. CENTER     SEG.            - - - CURRENT (AMPS) - - -
  NO.   NO.     X        Y        Z      LENGTH     REAL        IMAG.       MAG.        PHASE
     1    1  -0.1190   0.0000   0.0000  0.01190   7.9381E-04  2.6189E-03  2.7366E-03   73.138
     2    1  -0.1071   0.0000   0.0000  0.01190   8.0399E-04  2.7669E-03  2.8813E-03   73.797
     3    1  -0.0952   0.0000   0.0000  0.01190   1.0749E-03  3.8151E-03  3.9636E-03   74.265
     4    1  -0.0833   0.0000   0.0000  0.01190   1.1902E-03  4.3567E-03  4.5164E-03   74.720
     5    1  -0.0714   0.0000   0.0000  0.01190   1.3353E-03  5.1536E-03  5.3238E-03   75.474
     6    1  -0.0595   0.0000   0.0000  0.01190   1.4329E-03  5.6006E-03  5.7810E-03   75.649
     7    1  -0.0476   0.0000   0.0000  0.01190   1.5217E-03  6.6307E-03  6.8031E-03   77.075
     8    1  -0.0357   0.0000   0.0000  0.01190   1.5856E-03  6.4861E-03  6.6771E-03   76.263
     9    1  -0.0238   0.0000   0.0000  0.01190   1.6332E-03  9.0351E-03  9.1815E-03   79.754
    10    1  -0.0119   0.0000   0.0000  0.01190   1.6605E-03  6.0249E-03  6.2496E-03   74.591
    11    1   0.0000   0.0000   0.0000  0.01190   1.6704E-03  1.6509E-02  1.6593E-02   84.223
    12    1   0.0119   0.0000   0.0000  0.01190   1.6605E-03  6.0249E-03  6.2496E-03   74.591
    13    1   0.0238   0.0000   0.0000  0.01190   1.6332E-03  9.0351E-03  9.1815E-03   79.754
    14    1   0.0357   0.0000   0.0000  0.01190   1.5856E-03  6.4861E-03  6.6771E-03   76.263
    15    1   0.0476   0.0000   0.0000  0.01190   1.5217E-03  6.6307E-03  6.8031E-03   77.075
    16    1   0.0595   0.0000   0.0000  0.01190   1.4329E-03  5.6006E-03  5.7810E-03   75.649
    17    1   0.0714   0.0000   0.0000  0.01190   1.3353E-03  5.1536E-03  5.3238E-03   75.474
    18    1   0.0833   0.0000   0.0000  0.01190   1.1902E-03  4.3567E-03  4.5164E-03   74.720
    19    1   0.0952   0.0000   0.0000  0.01190   1.0749E-03  3.8151E-03  3.9636E-03   74.265
    20    1   0.1071   0.0000   0.0000  0.01190   8.0399E-04  2.7669E-03  2.8813E-03   73.797
    21    1   0.1190   0.0000   0.0000  0.01190   7.9381E-04  2.6189E-03  2.7366E-03   73.138



                                        - - - POWER BUDGET - - -

                                           INPUT POWER   = 8.3518E-04 WATTS
                                           RADIATED POWER= 8.3411E-04 WATTS
                                           STRUCTURE LOSS= 1.0686E-06 WATTS
                                           NETWORK LOSS  = 0.0000E+00 WATTS
                                           EFFICIENCY    =  99.87 PERCENT



                                                - - - RADIATION PATTERNS - - -

  - - ANGLES - -           - POWER GAINS -       - - - POLARIZATION - - -    - - - E(THETA) - - -    - - - E(PHI) - - -
  THETA     PHI        VERT.   HOR.    TOTAL      AXIAL     TILT   SENSE     MAGNITUDE    PHASE      MAGNITUDE    PHASE 
 DEGREES  DEGREES       DB      DB      DB        RATIO     DEG.              VOLTS/M    DEGREES      VOLTS/M    DEGREES
 -180.00     0.00       1.92 -999.99    1.92    0.00000     0.00  LINEAR    2.79076E-01   167.15    0.00000E+00     0.00
 -175.00     0.00       1.88 -999.99    1.88    0.00000     0.00  LINEAR    2.77870E-01   167.15    0.00000E+00     0.00
 -170.00     0.00       1.77 -999.99    1.77    0.00000     0.00  LINEAR    2.74270E-01   167.15    0.00000E+00     0.00
 -165.00     0.00       1.58 -999.99    1.58    0.00000     0.00  LINEAR    2.68334E-01   167.16    0.00000E+00     0.00
 -160.00     0.00       1.31 -999.99    1.31    0.00000     0.00  LINEAR    2.60154E-01   167.16    0.00000E+00     0.00
 -155.00     0.00       0.96 -999.99    0.96    0.00000     0.00  LINEAR    2.49853E-01   167.17    0.00000E+00     0.00
 -150.00     0.00       0.52 -999.99    0.52    0.00000     0.00  LINEAR    2.37581E-01   167.19    0.00000E+00     0.00
 -145.00     0.00      -0.01 -999.99   -0.01    0.00000     0.00  LINEAR    2.23506E-01   167.20    0.00000E+00     0.00
 -140.00     0.00      -0.64 -999.99   -0.64    0.00000     0.00  LINEAR    2.07808E-01   167.21    0.00000E+00     0.00
 -135.00     0.00      -1.39 -999.99   -1.39    0.00000     0.00  LINEAR    1.90676E-01   167.23    0.00000E+00     0.00
 -130.00     0.00      -2.27 -999.99   -2.27    0.00000     0.00  LINEAR    1.72297E-01   167.24    0.00000E+00     0.00
 -125.00     0.00      -3.31 -999.99   -3.31    0.00000     0.00  LINEAR    1.52854E-01   167.26    0.00000E+00     0.00
 -120.00     0.00      -4.55 -999.99   -4.55    0.00000     0.00  LINEAR    1.32520E-01   167.27    0.00000E+00     0.00
 -115.00     0.00      -6.05 -999.99   -6.05    0.00000     0.00  LINEAR    1.11458E-01   167.28    0.00000E+00     0.00
 -110.00     0.00      -7.93 -999.99   -7.93    0.00000     0.00  LINEAR    8.98172E-02   167.29    0.00000E+00     0.00
 -105.00     0.00     -10.38 -999.99  -10.38    0.00000     0.00  LINEAR    6.77326E-02   167.30    0.00000E+00     0.00
 -100.00     0.00     -13.87 -999.99  -13.87    0.00000     0.00  LINEAR    4.53274E-02   167.31    0.00000E+00     0.00
  -95.00     0.00     -19.87 -999.99  -19.87    0.00000     0.00  LINEAR    2.27146E-02   167.31    0.00000E+00     0.00
  -90.00     0.00    -999.99 -999.99 -999.99    0.00000     0.00            1.32936E-12   167.31    0.00000E+00     0.00
  -85.00     0.00     -19.87 -999.99  -19.87    0.00000     0.00  LINEAR    2.27146E-02   -12.69    0.00000E+00     0.00
  -80.00     0.00     -13.87 -999.99  -13.87    0.00000     0.00  LINEAR    4.53274E-02   -12.69    0.00000E+00     0.00
  -75.00     0.00     -10.38 -999.99  -10.38    0.00000     0.00  LINEAR    6.77326E-02   -12.70    0.00000E+00     0.00
  -70.00     0.00      -7.93 -999.99   -7.93    0.00000     0.00  LINEAR    8.98172E-02   -12.71    0.00000E+00     0.00
  -65.00     0.00      -6.05 -999.99   -6.05    0.00000     0.00  LINEAR    1.11458E-01   -12.72    0.00000E+00     0.00
  -60.00     0.00      -4.55 -999.99   -4.55    0.00000     0.00  LINEAR    1.32520E-01   -12.73    0.00000E+00     0.00
  -55.00     0.00      -3.31 -999.99   -3.31    0.00000     0.00  LINEAR    1.52854E-01   -12.74    0.00000E+00     0.00
  -50.00     0.00      -2.27 -999.99   -2.27    0.00000     0.00  LINEAR    1.72297E-01   -12.76    0.00000E+00     0.00
  -45.00     0.00      -1.39 -999.99   -1.39    0.00000     0.00  LINEAR    1.90676E-01   -12.77    0.00000E+00     0.00
  -40.00     0.00      -0.64 -999.99   -0.64    0.00000     0.00  LINEAR    2.07808E-01   -12.79    0.00000E+00     0.00
  -35.00     0.00      -0.01 -999.99   -0.01    0.00000     0.00  LINEAR    2.23506E-01   -12.80    0.00000E+00     0.00
  -30.00     0.00       0.52 -999.99    0.52    0.00000     0.00  LINEAR    2.37581E-01   -12.81    0.00000E+00     0.00
  -25.00     0.00       0.96 -999.99    0.96    0.00000     0.00  LINEAR    2.49853E-01   -12.83    0.00000E+00     0.00
  -20.00     0.00       1.31 -999.99    1.31    0.00000     0.00  LINEAR    2.60154E-01   -12.84    0.00000E+00     0.00
  -15.00     0.00       1.58 -999.99    1.58    0.00000     0.00  LINEAR    2.68334E-01   -12.84    0.00000E+00     0.00
  -10.00     0.00       1.77 -999.99    1.77    0.00000     0.00  LINEAR    2.74270E-01   -12.85    0.00000E+00     0.00
   -5.00     0.00       1.88 -999.99    1.88    0.00000     0.00  LINEAR    2.77870E-01   -12.85    0.00000E+00     0.00
    0.00     0.00       1.92 -999.99    1.92    0.00000     0.00  LINEAR    2.79076E-01   -12.85    0.00000E+00     0.00
 -180.00     5.00       1.89  -19.28    1.92    0.00000     5.00  LINEAR    2.78014E-01   167.15    2.43231E-02   167.15
 -175.00     5.00       1.85  -19.28    1.88    0.00000     5.02  LINEAR    2.76813E-01   167.15    2.43105E-02   167.15
 -170.00     5.00       1.73  -19.29    1.77    0.00000     5.08  LINEAR    2.73230E-01   167.15    2.42733E-02   167.15
 -165.00     5.00       1.54  -19.32    1.58    0.00000     5.18  LINEAR    2.67322E-01   167.16    2.42127E-02   167.16
 -160.00     5.00       1.28  -19.34    1.31    0.00000     5.32  LINEAR    2.59180E-01   167.16    2.41305E-02   167.16
 -155.00     5.00       0.93  -19.38    0.97    0.00000     5.51  LINEAR    2.48926E-01   167.17    2.40296E-02   167.17
 -150.00     5.00       0.49  -19.42    0.53    0.00000     5.77  LINEAR    2.36708E-01   167.19    2.39130E-02   167.19
 -145.00     5.00      -0.04  -19.47    0.01    0.00000     6.10  LINEAR    2.22694E-01   167.20    2.37846E-02   167.20
 -140.00     5.00      -0.67  -19.52   -0.62    0.00000     6.52  LINEAR    2.07062E-01   167.21    2.36483E-02   167.21
 -135.00     5.00      -1.42  -19.57   -1.36    0.00000     7.05  LINEAR    1.90000E-01   167.23    2.35083E-02   167.23
 -130.00     5.00      -2.30  -19.62   -2.22    0.00000     7.75  LINEAR    1.71694E-01   167.24    2.33690E-02   167.24
 -125.00     5.00      -3.34  -19.67   -3.24    0.00000     8.67  LINEAR    1.52326E-01   167.26    2.32345E-02   167.26
 -120.00     5.00      -4.58  -19.72   -4.45    0.00000     9.92  LINEAR    1.32068E-01   167.27    2.31088E-02   167.27
 -115.00     5.00      -6.08  -19.76   -5.90    0.00000    11.70  LINEAR    1.11082E-01   167.28    2.29957E-02   167.28
 -110.00     5.00      -7.96  -19.80   -7.68    0.00000    14.35  LINEAR    8.95171E-02   167.29    2.28984E-02   167.29
 -105.00     5.00     -10.41  -19.83   -9.94    0.00000    18.68  LINEAR    6.75080E-02   167.30    2.28198E-02   167.30
 -100.00     5.00     -13.90  -19.85  -12.92    0.00000    26.74  LINEAR    4.51780E-02   167.31    2.27619E-02   167.31
  -95.00     5.00     -19.90  -19.87  -16.87    0.00000    45.11  LINEAR    2.26400E-02   167.31    2.27265E-02   167.31
  -90.00     5.00    -999.99  -19.87  -19.87    0.00000    90.00  LINEAR    1.32500E-12   167.31    2.27146E-02   167.31
  -85.00     5.00     -19.90  -19.87  -16.87    0.00000   -45.11  LINEAR    2.26400E-02   -12.69    2.27265E-02   167.31
  -80.00     5.00     -13.90  -19.85  -12.92    0.00000   -26.74  LINEAR    4.51780E-02   -12.69    2.27619E-02   167.31
  -75.00     5.00     -10.41  -19.83   -9.94    0.00000   -18.68  LINEAR    6.75080E-02   -12.70    2.28198E-02   167.30
  -70.00     5.00      -7.96  -19.80   -7.68    0.00000   -14.35  LINEAR    8.95171E-02   -12.71    2.28984E-02   167.29
  -65.00     5.00      -6.08  -19.76   -5.90    0.00000   -11.70  LINEAR    1.11082E-01   -12.72    2.29957E-02   167.28
  -60.00     5.00      -4.58  -19.72   -4.45    0.00000    -9.92  LINEAR    1.32068E-01   -12.73    2.31088E-02   167.27
  -55.00     5.00      -3.34  -19.67   -3.24    0.00000    -8.67  LINEAR    1.52326E-01   -12.74    2.32345E-02   167.26
  -50.00     5.00      -2.30  -19.62   -2.22    0.00000    -7.75  LINEAR    1.71694E-01   -12.76    2.33690E-02   167.24
  -45.00     5.00      -1.42  -19.57   -1.36    0.00000    -7.05  LINEAR    1.90000E-01   -12.77    2.35083E-02   167.23
  -40.00     5.00      -0.67  -19.52   -0.62    0.00000    -6.52  LINEAR    2.07062E-01   -12.79    2.36483E-02   167.21
  -35.00     5.00      -0.04  -19.47    0.01    0.00000    -6.10  LINEAR    2.22694E-01   -12.80    2.37846E-02   167.20
  -30.00     5.00       0.49  -19.42    0.53    0.00000    -5.77  LINEAR    2.36708E-01   -12.81    2.39130E-02   167.19
  -25.00     5.00       0.93  -19.38    0.97    0.00000    -5.51  LINEAR    2.48926E-01   -12.83    2.40296E-02   167.17
  -20.00     5.00       1.28  -19.34    1.31    0.00000    -5.32  LINEAR    2.59180E-01   -12.84    2.41305E-02   167.16
  -15.00     5.00       1.54  -19.32    1.58    0.00000    -5.18  LINEAR    2.67322E-01   -12.84    2.42127E-02   167.16
  -10.00     5.00       1.73  -19.29    1.77    0.00000    -5.08  LINEAR    2.73230E-01   -12.85    2.42733E-02   167.15
   -5.00     5.00       1.85  -19.28    1.88    0.00000    -5.02  LINEAR    2.76813E-01   -12.85    2.43105E-02   167.15
    0.00     5.00       1.89  -19.28    1.92    0.00000    -5.00  LINEAR    2.78014E-01   -12.85    2.43231E-02   167.15
 -180.00    10.00       1.79  -13.29    1.92    0.00000    10.00  LINEAR    2.74836E-01   167.15    4.84610E-02   167.15
 -175.00    10.00       1.75  -13.29    1.88    0.00000    10.04  LINEAR    2.73652E-01   167.15    4.84366E-02   167.15
 -170.00    10.00       1.63  -13.31    1.77    0.00000    10.15  LINEAR    2.70120E-01   167.15    4.83642E-02   167.15
 -165.00    10.00       1.45  -13.33    1.59    0.00000    10.35  LINEAR    2.64294E-01   167.16    4.82461E-02   167.16
 -160.00    10.00       1.18  -13.36    1.33    0.00000    10.63  LINEAR    2.56264E-01   167.16    4.80861E-02   167.16
 -155.00    10.00       0.83  -13.39    0.99    0.00000    11.01  LINEAR    2.46149E-01   167.17    4.78895E-02   167.17
 -150.00    10.00       0.39  -13.43    0.57    0.00000    11.51  LINEAR    2.34093E-01   167.19    4.76625E-02   167.19
 -145.00    10.00      -0.14  -13.48    0.06    0.00000    12.15  LINEAR    2.20261E-01   167.20    4.74123E-02   167.20
 -140.00    10.00      -0.77  -13.53   -0.54    0.00000    12.96  LINEAR    2.04827E-01   167.21    4.71468E-02   167.21
 -135.00    10.00      -1.51  -13.58   -1.25    0.00000    14.00  LINEAR    1.87975E-01   167.23    4.68741E-02   167.23
 -130.00    10.00      -2.39  -13.63   -2.08    0.00000    15.34  LINEAR    1.69887E-01   167.24    4.66027E-02   167.24
 -125.00    10.00      -3.43  -13.68   -3.04    0.00000    17.09  LINEAR    1.50742E-01   167.25    4.63406E-02   167.25
 -120.00    10.00      -4.67  -13.72   -4.16    0.00000    19.43  LINEAR    1.30711E-01   167.27    4.60958E-02   167.27
 -115.00    10.00      -6.17  -13.76   -5.48    0.00000    22.65  LINEAR    1.09953E-01   167.28    4.58753E-02   167.28
 -110.00    10.00      -8.05  -13.80   -7.02    0.00000    27.27  LINEAR    8.86162E-02   167.29    4.56857E-02   167.29
 -105.00    10.00     -10.50  -13.83   -8.84    0.00000    34.27  LINEAR    6.68339E-02   167.30    4.55323E-02   167.30
 -100.00    10.00     -13.98  -13.85  -10.91    0.00000    45.44  LINEAR    4.47295E-02   167.30    4.54195E-02   167.30
  -95.00    10.00     -19.99  -13.86  -12.92    0.00000    63.70  LINEAR    2.24161E-02   167.31    4.53506E-02   167.31
  -90.00    10.00    -999.99  -13.87  -13.87    0.00000    90.00  LINEAR    1.31191E-12   167.31    4.53274E-02   167.31
  -85.00    10.00     -19.99  -13.86  -12.92    0.00000   -63.70  LINEAR    2.24161E-02   -12.69    4.53506E-02   167.31
  -80.00    10.00     -13.98  -13.85  -10.91    0.00000   -45.44  LINEAR    4.47295E-02   -12.70    4.54195E-02   167.30
  -75.00    10.00     -10.50  -13.83   -8.84    0.00000   -34.27  LINEAR    6.68339E-02   -12.70    4.55323E-02   167.30
  -70.00    10.00      -8.05  -13.80   -7.02    0.00000   -27.27  LINEAR    8.86162E-02   -12.71    4.56857E-02   167.29
  -65.00    10.00      -6.17  -13.76   -5.48    0.00000   -22.65  LINEAR    1.09953E-01   -12.72    4.58753E-02   167.28
  -60.00    10.00      -4.67  -13.72   -4.16    0.00000   -19.43  LINEAR    1.30711E-01   -12.73    4.60958E-02   167.27
  -55.00    10.00      -3.43  -13.68   -3.04    0.00000   -17.09  LINEAR    1.50742E-01   -12.75    4.63406E-02   167.25
  -50.00    10.00      -2.39  -13.63   -2.08    0.00000   -15.34  LINEAR    1.69887E-01   -12.76    4.66027E-02   167.24
  -45.00    10.00      -1.51  -13.58   -1.25    0.00000   -14.00  LINEAR    1.87975E-01   -12.77    4.68741E-02   167.23
  -40.00    10.00      -0.77  -13.53   -0.54    0.00000   -12.96  LINEAR    2.04827E-01   -12.79    4.71468E-02   167.21
  -35.00    10.00      -0.14  -13.48    0.06    0.00000   -12.15  LINEAR    2.20261E-01   -12.80    4.74123E-02   167.20
  -30.00    10.00       0.39  -13.43    0.57    0.00000   -11.51  LINEAR    2.34093E-01   -12.81    4.76625E-02   167.19
  -25.00    10.00       0.83  -13.39    0.99    0.00000   -11.01  LINEAR    2.46149E-01   -12.83    4.78895E-02   167.17
  -20.00    10.00       1.18  -13.36    1.33    0.00000   -10.63  LINEAR    2.56264E-01   -12.84    4.80861E-02   167.16
  -15.00    10.00       1.45  -13.33    1.59    0.00000   -10.35  LINEAR    2.64294E-01   -12.84    4.82461E-02   167.16
  -10.00    10.00       1.63  -13.31    1.77    0.00000   -10.15  LINEAR    2.70120E-01   -12.85    4.83642E-02   167.15
   -5.00    10.00       1.75  -13.29    1.88    0.00000   -10.04  LINEAR    2.73652E-01   -12.85    4.84366E-02   167.15
    0.00    10.00       1.79  -13.29    1.92    0.00000   -10.00  LINEAR    2.74836E-01   -12.85    4.84610E-02   167.15
 -180.00    15.00       1.62   -9.82    1.92    0.00000    15.00  LINEAR    2.69567E-01   167.15    7.22302E-02   167.15
 -175.00    15.00       1.58   -9.83    1.88    0.00000    15.05  LINEAR    2.68411E-01   167.15    7.21952E-02   167.15
 -170.00    15.00       1.47   -9.84    1.78    0.00000    15.22  LINEAR    2.64961E-01   167.15    7.20913E-02   167.15
 -165.00    15.00       1.28   -9.86    1.60    0.00000    15.50  LINEAR    2.59270E-01   167.16    7.19219E-02   167.16
 -160.00    15.00       1.01   -9.89    1.35    0.00000    15.92  LINEAR    2.51424E-01   167.16    7.16925E-02   167.16
 -155.00    15.00       0.66   -9.92    1.03    0.00000    16.47  LINEAR    2.41538E-01   167.17    7.14105E-02   167.17
 -150.00    15.00       0.23   -9.96    0.63    0.00000    17.19  LINEAR    2.29750E-01   167.18    7.10849E-02   167.18
 -145.00    15.00      -0.30  -10.00    0.14    0.00000    18.11  LINEAR    2.16218E-01   167.20    7.07260E-02   167.20
 -140.00    15.00      -0.93  -10.05   -0.43    0.00000    19.28  LINEAR    2.01110E-01   167.21    7.03449E-02   167.21
 -135.00    15.00      -1.67  -10.10   -1.09    0.00000    20.75  LINEAR    1.84605E-01   167.22    6.99536E-02   167.22
 -130.00    15.00      -2.55  -10.15   -1.85    0.00000    22.63  LINEAR    1.66878E-01   167.24    6.95640E-02   167.24
 -125.00    15.00      -3.58  -10.20   -2.73    0.00000    25.04  LINEAR    1.48105E-01   167.25    6.91878E-02   167.25
 -120.00    15.00      -4.82  -10.24   -3.73    0.00000    28.19  LINEAR    1.28450E-01   167.26    6.88362E-02   167.26
 -115.00    15.00      -6.32  -10.28   -4.85    0.00000    32.38  LINEAR    1.08071E-01   167.27    6.85196E-02   167.27
 -110.00    15.00      -8.19  -10.31   -6.12    0.00000    38.08  LINEAR    8.71133E-02   167.28    6.82473E-02   167.28
 -105.00    15.00     -10.64  -10.34   -7.48    0.00000    45.99  LINEAR    6.57090E-02   167.29    6.80269E-02   167.29
 -100.00    15.00     -14.13  -10.36   -8.84    0.00000    57.05  LINEAR    4.39808E-02   167.30    6.78649E-02   167.30
  -95.00    15.00     -20.13  -10.38   -9.94    0.00000    71.98  LINEAR    2.20422E-02   167.30    6.77659E-02   167.30
  -90.00    15.00    -999.99  -10.38  -10.38    0.00000    90.00  LINEAR    1.29005E-12   167.30    6.77326E-02   167.30
  -85.00    15.00     -20.13  -10.38   -9.94    0.00000   -71.98  LINEAR    2.20422E-02   -12.70    6.77659E-02   167.30
  -80.00    15.00     -14.13  -10.36   -8.84    0.00000   -57.05  LINEAR    4.39808E-02   -12.70    6.78649E-02   167.30
  -75.00    15.00     -10.64  -10.34   -7.48    0.00000   -45.99  LINEAR    6.57090E-02   -12.71    6.80269E-02   167.29
  -70.00    15.00      -8.19  -10.31   -6.12    0.00000   -38.08  LINEAR    8.71133E-02   -12.72    6.82473E-02   167.28
  -65.00    15.00      -6.32  -10.28   -4.85    0.00000   -32.38  LINEAR    1.08071E-01   -12.73    6.85196E-02   167.27
  -60.00    15.00      -4.82  -10.24   -3.73    0.00000   -28.19  LINEAR    1.28450E-01   -12.74    6.88362E-02   167.26
  -55.00    15.00      -3.58  -10.20   -2.73    0.00000   -25.04  LINEAR    1.48105E-01   -12.75    6.91878E-02   167.25
  -50.00    15.00      -2.55  -10.15   -1.85    0.00000   -22.63  LINEAR    1.66878E-01   -12.76    6.95640E-02   167.24
  -45.00    15.00      -1.67  -10.10   -1.09    0.00000   -20.75  LINEAR    1.84605E-01   -12.78    6.99536E-02   167.22
  -40.00    15.00      -0.93  -10.05   -0.43    0.00000   -19.28  LINEAR    2.01110E-01   -12.79    7.03449E-02   167.21
  -35.00    15.00      -0.30  -10.00    0.14    0.00000   -18.11  LINEAR    2.16218E-01   -12.80    7.07260E-02   167.20
  -30.00    15.00       0.23   -9.96    0.63    0.00000   -17.19  LINEAR    2.29750E-01   -12.82    7.10849E-02   167.18
  -25.00    15.00       0.66   -9.92    1.03    0.00000   -16.47  LINEAR    2.41538E-01   -12.83    7.14105E-02   167.17
  -20.00    15.00       1.01   -9.89    1.35    0.00000   -15.92  LINEAR    2.51424E-01   -12.84    7.16925E-02   167.16
  -15.00    15.00       1.28   -9.86    1.60    0.00000   -15.50  LINEAR    2.59270E-01   -12.84    7.19219E-02   167.16
  -10.00    15.00       1.47   -9.84    1.78    0.00000   -15.22  LINEAR    2.64961E-01   -12.85    7.20913E-02   167.15
   -5.00    15.00       1.58   -9.83    1.88    0.00000   -15.05  LINEAR    2.68411E-01   -12.85    7.21952E-02   167.15
    0.00    15.00       1.62   -9.82    1.92    0.00000   -15.00  LINEAR    2.69567E-01   -12.85    7.22302E-02   167.15
 -180.00    20.00       1.38   -7.40    1.92    0.00000    20.00  LINEAR    2.62246E-01   167.15    9.54496E-02   167.15
 -175.00    20.00       1.34   -7.40    1.88    0.00000    20.07  LINEAR    2.61128E-01   167.15    9.54058E-02   167.15
 -170.00    20.00       1.23   -7.42    1.79    0.00000    20.28  LINEAR    2.57792E-01   167.15    9.52759E-02   167.15
 -165.00    20.00       1.04   -7.44    1.62    0.00000    20.65  LINEAR    2.52287E-01   167.16    9.50641E-02   167.16
 -160.00    20.00       0.78   -7.46    1.38    0.00000    21.17  LINEAR    2.44694E-01   167.16    9.47771E-02   167.16
 -155.00    20.00       0.43   -7.49    1.08    0.00000    21.88  LINEAR    2.35122E-01   167.17    9.44243E-02   167.17
 -150.00    20.00       0.00   -7.53    0.70    0.00000    22.80  LINEAR    2.23702E-01   167.18    9.40168E-02   167.18
 -145.00    20.00      -0.53   -7.57    0.25    0.00000    23.96  LINEAR    2.10583E-01   167.19    9.35675E-02   167.19
 -140.00    20.00      -1.15   -7.62   -0.27    0.00000    25.41  LINEAR    1.95927E-01   167.21    9.30905E-02   167.21
 -135.00    20.00      -1.90   -7.66   -0.87    0.00000    27.24  LINEAR    1.79901E-01   167.22    9.26005E-02   167.22
 -130.00    20.00      -2.77   -7.71   -1.56    0.00000    29.52  LINEAR    1.62675E-01   167.23    9.21125E-02   167.23
 -125.00    20.00      -3.80   -7.75   -2.33    0.00000    32.40  LINEAR    1.44416E-01   167.24    9.16412E-02   167.24
 -120.00    20.00      -5.04   -7.80   -3.19    0.00000    36.05  LINEAR    1.25286E-01   167.26    9.12007E-02   167.26
 -115.00    20.00      -6.54   -7.83   -4.13    0.00000    40.74  LINEAR    1.05436E-01   167.27    9.08040E-02   167.27
 -110.00    20.00      -8.41   -7.87   -5.12    0.00000    46.78  LINEAR    8.50070E-02   167.28    9.04626E-02   167.28
 -105.00    20.00     -10.85   -7.89   -6.12    0.00000    54.58  LINEAR    6.41315E-02   167.28    9.01863E-02   167.28
 -100.00    20.00     -14.34   -7.91   -7.02    0.00000    64.49  LINEAR    4.29305E-02   167.29    8.99832E-02   167.29
  -95.00    20.00     -20.34   -7.93   -7.68    0.00000    76.53  LINEAR    2.15175E-02   167.29    8.98590E-02   167.29
  -90.00    20.00    -999.99   -7.93   -7.93    0.00000    90.00  LINEAR    1.25937E-12   167.29    8.98172E-02   167.29
  -85.00    20.00     -20.34   -7.93   -7.68    0.00000   -76.53  LINEAR    2.15175E-02   -12.71    8.98590E-02   167.29
  -80.00    20.00     -14.34   -7.91   -7.02    0.00000   -64.49  LINEAR    4.29305E-02   -12.71    8.99832E-02   167.29
  -75.00    20.00     -10.85   -7.89   -6.12    0.00000   -54.58  LINEAR    6.41315E-02   -12.72    9.01863E-02   167.28
  -70.00    20.00      -8.41   -7.87   -5.12    0.00000   -46.78  LINEAR    8.50070E-02   -12.72    9.04626E-02   167.28
  -65.00    20.00      -6.54   -7.83   -4.13    0.00000   -40.74  LINEAR    1.05436E-01   -12.73    9.08040E-02   167.27
  -60.00    20.00      -5.04   -7.80   -3.19    0.00000   -36.05  LINEAR    1.25286E-01   -12.74    9.12007E-02   167.26
  -55.00    20.00      -3.80   -7.75   -2.33    0.00000   -32.40  LINEAR    1.44416E-01   -12.76    9.16412E-02   167.24
  -50.00    20.00      -2.77   -7.71   -1.56    0.00000   -29.52  LINEAR    1.62675E-01   -12.77    9.21125E-02   167.23
  -45.00    20.00      -1.90   -7.66   -0.87    0.00000   -27.24  LINEAR    1.79901E-01   -12.78    9.26005E-02   167.22
  -40.00    20.00      -1.15   -7.62   -0.27    0.00000   -25.41  LINEAR    1.95927E-01   -12.79    9.30905E-02   167.21
  -35.00    20.00      -0.53   -7.57    0.25    0.00000   -23.96  LINEAR    2.10583E-01   -12.81    9.35675E-02   167.19
  -30.00    20.00       0.00   -7.53    0.70    0.00000   -22.80  LINEAR    2.23702E-01   -12.82    9.40168E-02   167.18
  -25.00    20.00       0.43   -7.49    1.08    0.00000   -21.88  LINEAR    2.35122E-01   -12.83    9.44243E-02   167.17
  -20.00    20.00       0.78   -7.46    1.38    0.00000   -21.17  LINEAR    2.44694E-01   -12.84    9.47771E-02   167.16
  -15.00    20.00       1.04   -7.44    1.62    0.00000   -20.65  LINEAR    2.52287E-01   -12.84    9.50641E-02   167.16
  -10.00    20.00       1.23   -7.42    1.79    0.00000   -20.28  LINEAR    2.57792E-01   -12.85    9.52759E-02   167.15
   -5.00    20.00       1.34   -7.40    1.88    0.00000   -20.07  LINEAR    2.61128E-01   -12.85    9.54058E-02   167.15
    0.00    20.00       1.38   -7.40    1.92    0.00000   -20.00  LINEAR    2.62246E-01   -12.85    9.54496E-02   167.15
 -180.00    25.00       1.06   -5.56    1.92    0.00000    25.00  LINEAR    2.52929E-01   167.15    1.17943E-01   167.15
 -175.00    25.00       1.03   -5.57    1.89    0.00000    25.08  LINEAR    2.51859E-01   167.15    1.17892E-01   167.15
 -170.00    25.00       0.92   -5.58    1.79    0.00000    25.34  LINEAR    2.48665E-01   167.15    1.17743E-01   167.15
 -165.00    25.00       0.73   -5.60    1.64    0.00000    25.77  LINEAR    2.43392E-01   167.15    1.17499E-01   167.15
 -160.00    25.00       0.47   -5.62    1.42    0.00000    26.39  LINEAR    2.36117E-01   167.16    1.17169E-01   167.16
 -155.00    25.00       0.12   -5.65    1.14    0.00000    27.23  LINEAR    2.26940E-01   167.17    1.16764E-01   167.17
 -150.00    25.00      -0.31   -5.69    0.80    0.00000    28.30  LINEAR    2.15983E-01   167.18    1.16295E-01   167.18
 -145.00    25.00      -0.83   -5.72    0.39    0.00000    29.65  LINEAR    2.03385E-01   167.19    1.15778E-01   167.19
 -140.00    25.00      -1.45   -5.77   -0.08    0.00000    31.33  LINEAR    1.89297E-01   167.20    1.15229E-01   167.20
 -135.00    25.00      -2.19   -5.81   -0.62    0.00000    33.40  LINEAR    1.73878E-01   167.21    1.14665E-01   167.21
 -130.00    25.00      -3.06   -5.85   -1.23    0.00000    35.96  LINEAR    1.57287E-01   167.23    1.14103E-01   167.23
 -125.00    25.00      -4.09   -5.89   -1.89    0.00000    39.11  LINEAR    1.39684E-01   167.24    1.13560E-01   167.24
 -120.00    25.00      -5.32   -5.93   -2.61    0.00000    43.00  LINEAR    1.21221E-01   167.25    1.13053E-01   167.25
 -115.00    25.00      -6.82   -5.97   -3.36    0.00000    47.81  LINEAR    1.02046E-01   167.26    1.12596E-01   167.26
 -110.00    25.00      -8.69   -6.00   -4.13    0.00000    53.74  LINEAR    8.22963E-02   167.27    1.12202E-01   167.27
 -105.00    25.00     -11.13   -6.02   -4.85    0.00000    60.97  LINEAR    6.20999E-02   167.27    1.11884E-01   167.27
 -100.00    25.00     -14.62   -6.04   -5.48    0.00000    69.58  LINEAR    4.15772E-02   167.28    1.11650E-01   167.28
  -95.00    25.00     -20.62   -6.05   -5.90    0.00000    79.41  LINEAR    2.08412E-02   167.28    1.11506E-01   167.28
  -90.00    25.00    -999.99   -6.05   -6.05    0.00000    90.00  LINEAR    1.21983E-12   167.28    1.11458E-01   167.28
  -85.00    25.00     -20.62   -6.05   -5.90    0.00000   -79.41  LINEAR    2.08412E-02   -12.72    1.11506E-01   167.28
  -80.00    25.00     -14.62   -6.04   -5.48    0.00000   -69.58  LINEAR    4.15772E-02   -12.72    1.11650E-01   167.28
  -75.00    25.00     -11.13   -6.02   -4.85    0.00000   -60.97  LINEAR    6.20999E-02   -12.73    1.11884E-01   167.27
  -70.00    25.00      -8.69   -6.00   -4.13    0.00000   -53.74  LINEAR    8.22963E-02   -12.73    1.12202E-01   167.27
  -65.00    25.00      -6.82   -5.97   -3.36    0.00000   -47.81  LINEAR    1.02046E-01   -12.74    1.12596E-01   167.26
  -60.00    25.00      -5.32   -5.93   -2.61    0.00000   -43.00  LINEAR    1.21221E-01   -12.75    1.13053E-01   167.25
  -55.00    25.00      -4.09   -5.89   -1.89    0.00000   -39.11  LINEAR    1.39684E-01   -12.76    1.13560E-01   167.24
  -50.00    25.00      -3.06   -5.85   -1.23    0.00000   -35.96  LINEAR    1.57287E-01   -12.77    1.14103E-01   167.23
  -45.00    25.00      -2.19   -5.81   -0.62    0.00000   -33.40  LINEAR    1.73878E-01   -12.79    1.14665E-01   167.21
  -40.00    25.00      -1.45   -5.77   -0.08    0.00000   -31.33  LINEAR    1.89297E-01   -12.80    1.15229E-01   167.20
  -35.00    25.00      -0.83   -5.72    0.39    0.00000   -29.65  LINEAR    2.03385E-01   -12.81    1.15778E-01   167.19
  -30.00    25.00      -0.31   -5.69    0.80    0.00000   -28.30  LINEAR    2.15983E-01   -12.82    1.16295E-01   167.18
  -25.00    25.00       0.12   -5.65    1.14    0.00000   -27.23  LINEAR    2.26940E-01   -12.83    1.16764E-01   167.17
  -20.00    25.00       0.47   -5.62    1.42    0.00000   -26.39  LINEAR    2.36117E-01   -12.84    1.17169E-01   167.16
  -15.00    25.00       0.73   -5.60    1.64    0.00000   -25.77  LINEAR    2.43392E-01   -12.85    1.17499E-01   167.15
  -10.00    25.00       0.92   -5.58    1.79    0.00000   -25.34  LINEAR    2.48665E-01   -12.85    1.17743E-01   167.15
   -5.00    25.00       1.03   -5.57    1.89    0.00000   -25.08  LINEAR    2.51859E-01   -12.85    1.17892E-01   167.15
    0.00    25.00       1.06   -5.56    1.92    0.00000   -25.00  LINEAR    2.52929E-01   -12.85    1.17943E-01   167.15
 -180.00    30.00       0.67   -4.10    1.92    0.00000    30.00  LINEAR    2.41687E-01   167.15    1.39538E-01   167.15
 -175.00    30.00       0.63   -4.11    1.89    0.00000    30.09  LINEAR    2.40673E-01   167.15    1.39484E-01   167.15
 -170.00    30.00       0.52   -4.12    1.81    0.00000    30.38  LINEAR    2.37647E-01   167.15    1.39322E-01   167.15
 -165.00    30.00       0.34   -4.13    1.66    0.00000    30.87  LINEAR    2.32650E-01   167.15    1.39059E-01   167.15
 -160.00    30.00       0.08   -4.15    1.47    0.00000    31.57  LINEAR    2.25752E-01   167.16    1.38703E-01   167.16
 -155.00    30.00      -0.27   -4.18    1.21    0.00000    32.50  LINEAR    2.17043E-01   167.17    1.38264E-01   167.17
 -150.00    30.00      -0.69   -4.21    0.90    0.00000    33.69  LINEAR    2.06636E-01   167.18    1.37757E-01   167.18
 -145.00    30.00      -1.21   -4.25    0.54    0.00000    35.18  LINEAR    1.94659E-01   167.19    1.37198E-01   167.19
 -140.00    30.00      -1.83   -4.29    0.12    0.00000    37.00  LINEAR    1.81251E-01   167.20    1.36605E-01   167.20
 -135.00    30.00      -2.56   -4.33   -0.35    0.00000    39.23  LINEAR    1.66558E-01   167.21    1.35994E-01   167.21
 -130.00    30.00      -3.43   -4.36   -0.86    0.00000    41.93  LINEAR    1.50731E-01   167.22    1.35386E-01   167.22
 -125.00    30.00      -4.46   -4.40   -1.42    0.00000    45.19  LINEAR    1.33917E-01   167.23    1.34798E-01   167.23
 -120.00    30.00      -5.69   -4.44   -2.01    0.00000    49.11  LINEAR    1.16263E-01   167.24    1.34248E-01   167.24
 -115.00    30.00      -7.18   -4.47   -2.61    0.00000    53.80  LINEAR    9.79067E-02   167.25    1.33753E-01   167.25
 -110.00    30.00      -9.05   -4.50   -3.19    0.00000    59.36  LINEAR    7.89821E-02   167.26    1.33327E-01   167.26
 -105.00    30.00     -11.49   -4.52   -3.73    0.00000    65.85  LINEAR    5.96139E-02   167.26    1.32981E-01   167.26
 -100.00    30.00     -14.97   -4.54   -4.16    0.00000    73.26  LINEAR    3.99201E-02   167.27    1.32727E-01   167.27
  -95.00    30.00     -20.97   -4.55   -4.45    0.00000    81.42  LINEAR    2.00129E-02   167.27    1.32572E-01   167.27
  -90.00    30.00    -999.99   -4.55   -4.55    0.00000    90.00  LINEAR    1.17139E-12   167.27    1.32520E-01   167.27
  -85.00    30.00     -20.97   -4.55   -4.45    0.00000   -81.42  LINEAR    2.00129E-02   -12.73    1.32572E-01   167.27
  -80.00    30.00     -14.97   -4.54   -4.16    0.00000   -73.26  LINEAR    3.99201E-02   -12.73    1.32727E-01   167.27
  -75.00    30.00     -11.49   -4.52   -3.73    0.00000   -65.85  LINEAR    5.96139E-02   -12.74    1.32981E-01   167.26
  -70.00    30.00      -9.05   -4.50   -3.19    0.00000   -59.36  LINEAR    7.89821E-02   -12.74    1.33327E-01   167.26
  -65.00    30.00      -7.18   -4.47   -2.61    0.00000   -53.80  LINEAR    9.79067E-02   -12.75    1.33753E-01   167.25
  -60.00    30.00      -5.69   -4.44   -2.01    0.00000   -49.11  LINEAR    1.16263E-01   -12.76    1.34248E-01   167.24
  -55.00    30.00      -4.46   -4.40   -1.42    0.00000   -45.19  LINEAR    1.33917E-01   -12.77    1.34798E-01   167.23
  -50.00    30.00      -3.43   -4.36   -0.86    0.00000   -41.93  LINEAR    1.50731E-01   -12.78    1.35386E-01   167.22
  -45.00    30.00      -2.56   -4.33   -0.35    0.00000   -39.23  LINEAR    1.66558E-01   -12.79    1.35994E-01   167.21
  -40.00    30.00      -1.83   -4.29    0.12    0.00000   -37.00  LINEAR    1.81251E-01   -12.80    1.36605E-01   167.20
  -35.00    30.00      -1.21   -4.25    0.54    0.00000   -35.18  LINEAR    1.94659E-01   -12.81    1.37198E-01   167.19
  -30.00    30.00      -0.69   -4.21    0.90    0.00000   -33.69  LINEAR    2.06636E-01   -12.82    1.37757E-01   167.18
  -25.00    30.00      -0.27   -4.18    1.21    0.00000   -32.50  LINEAR    2.17043E-01   -12.83    1.38264E-01   167.17
  -20.00    30.00       0.08   -4.15    1.47    0.00000   -31.57  LINEAR    2.25752E-01   -12.84    1.38703E-01   167.16
  -15.00    30.00       0.34   -4.13    1.66    0.00000   -30.87  LINEAR    2.32650E-01   -12.85    1.39059E-01   167.15
  -10.00    30.00       0.52   -4.12    1.81    0.00000   -30.38  LINEAR    2.37647E-01   -12.85    1.39322E-01   167.15
   -5.00    30.00       0.63   -4.11    1.89    0.00000   -30.09  LINEAR    2.40673E-01   -12.85    1.39484E-01   167.15
    0.00    30.00       0.67   -4.10    1.92    0.00000   -30.00  LINEAR    2.41687E-01   -12.85    1.39538E-01   167.15
 -180.00    35.00       0.19   -2.91    1.92    0.00000    35.00  LINEAR    2.28606E-01   167.15    1.60071E-01   167.15
 -175.00    35.00       0.15   -2.91    1.89    0.00000    35.10  LINEAR    2.27656E-01   167.15    1.60016E-01   167.15
 -170.00    35.00       0.04   -2.92    1.82    0.00000    35.41  LINEAR    2.24821E-01   167.15    1.59850E-01   167.15
 -165.00    35.00      -0.14   -2.94    1.69    0.00000    35.94  LINEAR    2.20138E-01   167.15    1.59580E-01   167.15
 -160.00    35.00      -0.40   -2.96    1.52    0.00000    36.69  LINEAR    2.13668E-01   167.16    1.59214E-01   167.16
 -155.00    35.00      -0.74   -2.98    1.29    0.00000    37.69  LINEAR    2.05494E-01   167.17    1.58763E-01   167.17
 -150.00    35.00      -1.16   -3.01    1.02    0.00000    38.96  LINEAR    1.95717E-01   167.17    1.58243E-01   167.17
 -145.00    35.00      -1.68   -3.04    0.70    0.00000    40.52  LINEAR    1.84452E-01   167.18    1.57669E-01   167.18
 -140.00    35.00      -2.29   -3.08    0.34    0.00000    42.43  LINEAR    1.71825E-01   167.19    1.57058E-01   167.19
 -135.00    35.00      -3.02   -3.11   -0.06    0.00000    44.72  LINEAR    1.57972E-01   167.20    1.56430E-01   167.20
 -130.00    35.00      -3.89   -3.14   -0.49    0.00000    47.45  LINEAR    1.43028E-01   167.21    1.55805E-01   167.21
 -125.00    35.00      -4.91   -3.18   -0.95    0.00000    50.68  LINEAR    1.27132E-01   167.22    1.55200E-01   167.22
 -120.00    35.00      -6.14   -3.21   -1.42    0.00000    54.47  LINEAR    1.10420E-01   167.23    1.54634E-01   167.23
 -115.00    35.00      -7.62   -3.24   -1.89    0.00000    58.89  LINEAR    9.30233E-02   167.24    1.54124E-01   167.24
 -110.00    35.00      -9.49   -3.26   -2.33    0.00000    63.97  LINEAR    7.50681E-02   167.24    1.53685E-01   167.24
 -105.00    35.00     -11.93   -3.28   -2.73    0.00000    69.71  LINEAR    5.66753E-02   167.25    1.53329E-01   167.25
 -100.00    35.00     -15.41   -3.30   -3.04    0.00000    76.07  LINEAR    3.79600E-02   167.25    1.53067E-01   167.25
  -95.00    35.00     -21.41   -3.31   -3.24    0.00000    82.90  LINEAR    1.90326E-02   167.26    1.52907E-01   167.26
  -90.00    35.00    -999.99   -3.31   -3.31    0.00000    90.00  LINEAR    1.11406E-12   167.26    1.52854E-01   167.26
  -85.00    35.00     -21.41   -3.31   -3.24    0.00000   -82.90  LINEAR    1.90326E-02   -12.74    1.52907E-01   167.26
  -80.00    35.00     -15.41   -3.30   -3.04    0.00000   -76.07  LINEAR    3.79600E-02   -12.75    1.53067E-01   167.25
  -75.00    35.00     -11.93   -3.28   -2.73    0.00000   -69.71  LINEAR    5.66753E-02   -12.75    1.53329E-01   167.25
  -70.00    35.00      -9.49   -3.26   -2.33    0.00000   -63.97  LINEAR    7.50681E-02   -12.76    1.53685E-01   167.24
  -65.00    35.00      -7.62   -3.24   -1.89    0.00000   -58.89  LINEAR    9.30233E-02   -12.76    1.54124E-01   167.24
  -60.00    35.00      -6.14   -3.21   -1.42    0.00000   -54.47  LINEAR    1.10420E-01   -12.77    1.54634E-01   167.23
  -55.00    35.00      -4.91   -3.18   -0.95    0.00000   -50.68  LINEAR    1.27132E-01   -12.78    1.55200E-01   167.22
  -50.00    35.00      -3.89   -3.14   -0.49    0.00000   -47.45  LINEAR    1.43028E-01   -12.79    1.55805E-01   167.21
  -45.00    35.00      -3.02   -3.11   -0.06    0.00000   -44.72  LINEAR    1.57972E-01   -12.80    1.56430E-01   167.20
  -40.00    35.00      -2.29   -3.08    0.34    0.00000   -42.43  LINEAR    1.71825E-01   -12.81    1.57058E-01   167.19
  -35.00    35.00      -1.68   -3.04    0.70    0.00000   -40.52  LINEAR    1.84452E-01   -12.82    1.57669E-01   167.18
  -30.00    35.00      -1.16   -3.01    1.02    0.00000   -38.96  LINEAR    1.95717E-01   -12.83    1.58243E-01   167.17
  -25.00    35.00      -0.74   -2.98    1.29    0.00000   -37.69  LINEAR    2.05494E-01   -12.83    1.58763E-01   167.17
  -20.00    35.00      -0.40   -2.96    1.52    0.00000   -36.69  LINEAR    2.13668E-01   -12.84    1.59214E-01   167.16
  -15.00    35.00      -0.14   -2.94    1.69    0.00000   -35.94  LINEAR    2.20138E-01   -12.85    1.59580E-01   167.15
  -10.00    35.00       0.04   -2.92    1.82    0.00000   -35.41  LINEAR    2.24821E-01   -12.85    1.59850E-01   167.15
   -5.00    35.00       0.15   -2.91    1.89    0.00000   -35.10  LINEAR    2.27656E-01   -12.85    1.60016E-01   167.15
    0.00    35.00       0.19   -2.91    1.92    0.00000   -35.00  LINEAR    2.28606E-01   -12.85    1.60071E-01   167.15
 -180.00    40.00      -0.40   -1.92    1.92    0.00000    40.00  LINEAR    2.13785E-01   167.15    1.79387E-01   167.15
 -175.00    40.00      -0.43   -1.92    1.90    0.00000    40.11  LINEAR    2.12906E-01   167.15    1.79332E-01   167.15
 -170.00    40.00      -0.54   -1.93    1.83    0.00000    40.43  LINEAR    2.10282E-01   167.15    1.79170E-01   167.15
 -165.00    40.00      -0.72   -1.94    1.72    0.00000    40.98  LINEAR    2.05945E-01   167.15    1.78905E-01   167.15
 -160.00    40.00      -0.98   -1.96    1.57    0.00000    41.76  LINEAR    1.99950E-01   167.16    1.78546E-01   167.16
 -155.00    40.00      -1.31   -1.98    1.37    0.00000    42.79  LINEAR    1.92370E-01   167.16    1.78104E-01   167.16
 -150.00    40.00      -1.73   -2.01    1.14    0.00000    44.10  LINEAR    1.83292E-01   167.17    1.77594E-01   167.17
 -145.00    40.00      -2.24   -2.04    0.87    0.00000    45.69  LINEAR    1.72821E-01   167.18    1.77030E-01   167.18
 -140.00    40.00      -2.86   -2.06    0.57    0.00000    47.61  LINEAR    1.61070E-01   167.19    1.76431E-01   167.19
 -135.00    40.00      -3.58   -2.10    0.24    0.00000    49.88  LINEAR    1.48158E-01   167.19    1.75814E-01   167.19
 -130.00    40.00      -4.44   -2.13   -0.12    0.00000    52.55  LINEAR    1.34211E-01   167.20    1.75200E-01   167.20
 -125.00    40.00      -5.46   -2.16   -0.49    0.00000    55.64  LINEAR    1.19353E-01   167.21    1.74605E-01   167.21
 -120.00    40.00      -6.68   -2.18   -0.86    0.00000    59.21  LINEAR    1.03712E-01   167.22    1.74049E-01   167.22
 -115.00    40.00      -8.17   -2.21   -1.23    0.00000    63.27  LINEAR    8.74082E-02   167.23    1.73547E-01   167.23
 -110.00    40.00     -10.02   -2.23   -1.56    0.00000    67.82  LINEAR    7.05623E-02   167.23    1.73115E-01   167.23
 -105.00    40.00     -12.46   -2.25   -1.85    0.00000    72.86  LINEAR    5.32891E-02   167.24    1.72765E-01   167.24
 -100.00    40.00     -15.94   -2.26   -2.08    0.00000    78.31  LINEAR    3.56997E-02   167.24    1.72507E-01   167.24
  -95.00    40.00     -21.94   -2.27   -2.22    0.00000    84.07  LINEAR    1.79017E-02   167.24    1.72350E-01   167.24
  -90.00    40.00    -999.99   -2.27   -2.27    0.00000    90.00  LINEAR    1.04791E-12   167.24    1.72297E-01   167.24
  -85.00    40.00     -21.94   -2.27   -2.22    0.00000   -84.07  LINEAR    1.79017E-02   -12.76    1.72350E-01   167.24
  -80.00    40.00     -15.94   -2.26   -2.08    0.00000   -78.31  LINEAR    3.56997E-02   -12.76    1.72507E-01   167.24
  -75.00    40.00     -12.46   -2.25   -1.85    0.00000   -72.86  LINEAR    5.32891E-02   -12.76    1.72765E-01   167.24
  -70.00    40.00     -10.02   -2.23   -1.56    0.00000   -67.82  LINEAR    7.05623E-02   -12.77    1.73115E-01   167.23
  -65.00    40.00      -8.17   -2.21   -1.23    0.00000   -63.27  LINEAR    8.74082E-02   -12.77    1.73547E-01   167.23
  -60.00    40.00      -6.68   -2.18   -0.86    0.00000   -59.21  LINEAR    1.03712E-01   -12.78    1.74049E-01   167.22
  -55.00    40.00      -5.46   -2.16   -0.49    0.00000   -55.64  LINEAR    1.19353E-01   -12.79    1.74605E-01   167.21
  -50.00    40.00      -4.44   -2.13   -0.12    0.00000   -52.55  LINEAR    1.34211E-01   -12.80    1.75200E-01   167.20
  -45.00    40.00      -3.58   -2.10    0.24    0.00000   -49.88  LINEAR    1.48158E-01   -12.81    1.75814E-01   167.19
  -40.00    40.00      -2.86   -2.06    0.57    0.00000   -47.61  LINEAR    1.61070E-01   -12.81    1.76431E-01   167.19
  -35.00    40.00      -2.24   -2.04    0.87    0.00000   -45.69  LINEAR    1.72821E-01   -12.82    1.77030E-01   167.18
  -30.00    40.00      -1.73   -2.01    1.14    0.00000   -44.10  LINEAR    1.83292E-01   -12.83    1.77594E-01   167.17
  -25.00    40.00      -1.31   -1.98    1.37    0.00000   -42.79  LINEAR    1.92370E-01   -12.84    1.78104E-01   167.16
  -20.00    40.00      -0.98   -1.96    1.57    0.00000   -41.76  LINEAR    1.99950E-01   -12.84    1.78546E-01   167.16
  -15.00    40.00      -0.72   -1.94    1.72    0.00000   -40.98  LINEAR    2.05945E-01   -12.85    1.78905E-01   167.15
  -10.00    40.00      -0.54   -1.93    1.83    0.00000   -40.43  LINEAR    2.10282E-01   -12.85    1.79170E-01   167.15
   -5.00    40.00      -0.43   -1.92    1.90    0.00000   -40.11  LINEAR    2.12906E-01   -12.85    1.79332E-01   167.15
    0.00    40.00      -0.40   -1.92    1.92    0.00000   -40.00  LINEAR    2.13785E-01   -12.85    1.79387E-01   167.15
 -180.00    45.00      -1.09   -1.09    1.92    0.00000    45.00  LINEAR    1.97337E-01   167.15    1.97337E-01   167.15
 -175.00    45.00      -1.13   -1.09    1.90    0.00000    45.11  LINEAR    1.96535E-01   167.15    1.97285E-01   167.15
 -170.00    45.00      -1.23   -1.10    1.84    0.00000    45.44  LINEAR    1.94138E-01   167.15    1.97133E-01   167.15
 -165.00    45.00      -1.41   -1.11    1.75    0.00000    45.99  LINEAR    1.90176E-01   167.15    1.96885E-01   167.15
 -160.00    45.00      -1.67   -1.13    1.62    0.00000    46.78  LINEAR    1.84695E-01   167.16    1.96548E-01   167.16
 -155.00    45.00      -2.00   -1.15    1.46    0.00000    47.81  LINEAR    1.77758E-01   167.16    1.96134E-01   167.16
 -150.00    45.00      -2.42   -1.17    1.26    0.00000    49.11  LINEAR    1.69442E-01   167.17    1.95655E-01   167.17
 -145.00    45.00      -2.92   -1.19    1.04    0.00000    50.68  LINEAR    1.59838E-01   167.17    1.95126E-01   167.17
 -140.00    45.00      -3.53   -1.22    0.79    0.00000    52.55  LINEAR    1.49044E-01   167.18    1.94563E-01   167.18
 -135.00    45.00      -4.25   -1.24    0.52    0.00000    54.74  LINEAR    1.37168E-01   167.19    1.93984E-01   167.19
 -130.00    45.00      -5.11   -1.27    0.24    0.00000    57.27  LINEAR    1.24319E-01   167.19    1.93407E-01   167.19
 -125.00    45.00      -6.12   -1.29   -0.06    0.00000    60.16  LINEAR    1.10613E-01   167.20    1.92848E-01   167.20
 -120.00    45.00      -7.34   -1.32   -0.35    0.00000    63.43  LINEAR    9.61624E-02   167.21    1.92325E-01   167.21
 -115.00    45.00      -8.82   -1.34   -0.62    0.00000    67.09  LINEAR    8.10805E-02   167.21    1.91853E-01   167.21
 -110.00    45.00     -10.67   -1.36   -0.87    0.00000    71.12  LINEAR    6.54785E-02   167.22    1.91446E-01   167.22
 -105.00    45.00     -13.11   -1.37   -1.09    0.00000    75.49  LINEAR    4.94647E-02   167.22    1.91117E-01   167.22
 -100.00    45.00     -16.59   -1.38   -1.25    0.00000    80.15  LINEAR    3.31450E-02   167.23    1.90874E-01   167.23
  -95.00    45.00     -22.58   -1.39   -1.36    0.00000    85.02  LINEAR    1.66229E-02   167.23    1.90726E-01   167.23
  -90.00    45.00    -999.99   -1.39   -1.39    0.00000    90.00  LINEAR    9.73099E-13   167.23    1.90676E-01   167.23
  -85.00    45.00     -22.58   -1.39   -1.36    0.00000   -85.02  LINEAR    1.66229E-02   -12.77    1.90726E-01   167.23
  -80.00    45.00     -16.59   -1.38   -1.25    0.00000   -80.15  LINEAR    3.31450E-02   -12.77    1.90874E-01   167.23
  -75.00    45.00     -13.11   -1.37   -1.09    0.00000   -75.49  LINEAR    4.94647E-02   -12.78    1.91117E-01   167.22
  -70.00    45.00     -10.67   -1.36   -0.87    0.00000   -71.12  LINEAR    6.54785E-02   -12.78    1.91446E-01   167.22
  -65.00    45.00      -8.82   -1.34   -0.62    0.00000   -67.09  LINEAR    8.10805E-02   -12.79    1.91853E-01   167.21
  -60.00    45.00      -7.34   -1.32   -0.35    0.00000   -63.43  LINEAR    9.61624E-02   -12.79    1.92325E-01   167.21
  -55.00    45.00      -6.12   -1.29   -0.06    0.00000   -60.16  LINEAR    1.10613E-01   -12.80    1.92848E-01   167.20
  -50.00    45.00      -5.11   -1.27    0.24    0.00000   -57.27  LINEAR    1.24319E-01   -12.81    1.93407E-01   167.19
  -45.00    45.00      -4.25   -1.24    0.52    0.00000   -54.74  LINEAR    1.37168E-01   -12.81    1.93984E-01   167.19
  -40.00    45.00      -3.53   -1.22    0.79    0.00000   -52.55  LINEAR    1.49044E-01   -12.82    1.94563E-01   167.18
  -35.00    45.00      -2.92   -1.19    1.04    0.00000   -50.68  LINEAR    1.59838E-01   -12.83    1.95126E-01   167.17
  -30.00    45.00      -2.42   -1.17    1.26    0.00000   -49.11  LINEAR    1.69442E-01   -12.83    1.95655E-01   167.17
  -25.00    45.00      -2.00   -1.15    1.46    0.00000   -47.81  LINEAR    1.77758E-01   -12.84    1.96134E-01   167.16
  -20.00    45.00      -1.67   -1.13    1.62    0.00000   -46.78  LINEAR    1.84695E-01   -12.84    1.96548E-01   167.16
  -15.00    45.00      -1.41   -1.11    1.75    0.00000   -45.99  LINEAR    1.90176E-01   -12.85    1.96885E-01   167.15
  -10.00    45.00      -1.23   -1.10    1.84    0.00000   -45.44  LINEAR    1.94138E-01   -12.85    1.97133E-01   167.15
   -5.00    45.00      -1.13   -1.09    1.90    0.00000   -45.11  LINEAR    1.96535E-01   -12.85    1.97285E-01   167.15
    0.00    45.00      -1.09   -1.09    1.92    0.00000   -45.00  LINEAR    1.97337E-01   -12.85    1.97337E-01   167.15
 -180.00    50.00      -1.92   -0.40    1.92    0.00000    50.00  LINEAR    1.79387E-01   167.15    2.13785E-01   167.15
 -175.00    50.00      -1.96   -0.40    1.90    0.00000    50.11  LINEAR    1.78666E-01   167.15    2.13739E-01   167.15
 -170.00    50.00      -2.06   -0.40    1.86    0.00000    50.43  LINEAR    1.76511E-01   167.15    2.13603E-01   167.15
 -165.00    50.00      -2.24   -0.41    1.78    0.00000    50.97  LINEAR    1.72946E-01   167.15    2.13380E-01   167.15
 -160.00    50.00      -2.49   -0.43    1.67    0.00000    51.74  LINEAR    1.68012E-01   167.15    2.13079E-01   167.15
 -155.00    50.00      -2.82   -0.44    1.54    0.00000    52.75  LINEAR    1.61760E-01   167.16    2.12708E-01   167.16
 -150.00    50.00      -3.23   -0.46    1.38    0.00000    53.99  LINEAR    1.54259E-01   167.16    2.12278E-01   167.16
 -145.00    50.00      -3.73   -0.48    1.20    0.00000    55.50  LINEAR    1.45584E-01   167.17    2.11804E-01   167.17
 -140.00    50.00      -4.34   -0.50    1.00    0.00000    57.27  LINEAR    1.35821E-01   167.17    2.11300E-01   167.17
 -135.00    50.00      -5.05   -0.52    0.79    0.00000    59.32  LINEAR    1.25063E-01   167.18    2.10780E-01   167.18
 -130.00    50.00      -5.90   -0.54    0.57    0.00000    61.66  LINEAR    1.13407E-01   167.19    2.10262E-01   167.19
 -125.00    50.00      -6.91   -0.56    0.34    0.00000    64.30  LINEAR    1.00955E-01   167.19    2.09760E-01   167.19
 -120.00    50.00      -8.13   -0.58    0.12    0.00000    67.24  LINEAR    8.78077E-02   167.20    2.09290E-01   167.20
 -115.00    50.00      -9.60   -0.60   -0.08    0.00000    70.47  LINEAR    7.40679E-02   167.20    2.08866E-01   167.20
 -110.00    50.00     -11.46   -0.61   -0.27    0.00000    73.99  LINEAR    5.98374E-02   167.21    2.08501E-01   167.21
 -105.00    50.00     -13.89   -0.63   -0.43    0.00000    77.75  LINEAR    4.52169E-02   167.21    2.08205E-01   167.21
 -100.00    50.00     -17.37   -0.64   -0.54    0.00000    81.71  LINEAR    3.03054E-02   167.21    2.07987E-01   167.21
  -95.00    50.00     -23.36   -0.64   -0.62    0.00000    85.82  LINEAR    1.52008E-02   167.21    2.07853E-01   167.21
  -90.00    50.00    -999.99   -0.64   -0.64    0.00000    90.00  LINEAR    8.89892E-13   167.21    2.07808E-01   167.21
  -85.00    50.00     -23.36   -0.64   -0.62    0.00000   -85.82  LINEAR    1.52008E-02   -12.79    2.07853E-01   167.21
  -80.00    50.00     -17.37   -0.64   -0.54    0.00000   -81.71  LINEAR    3.03054E-02   -12.79    2.07987E-01   167.21
  -75.00    50.00     -13.89   -0.63   -0.43    0.00000   -77.75  LINEAR    4.52169E-02   -12.79    2.08205E-01   167.21
  -70.00    50.00     -11.46   -0.61   -0.27    0.00000   -73.99  LINEAR    5.98374E-02   -12.79    2.08501E-01   167.21
  -65.00    50.00      -9.60   -0.60   -0.08    0.00000   -70.47  LINEAR    7.40679E-02   -12.80    2.08866E-01   167.20
  -60.00    50.00      -8.13   -0.58    0.12    0.00000   -67.24  LINEAR    8.78077E-02   -12.80    2.09290E-01   167.20
  -55.00    50.00      -6.91   -0.56    0.34    0.00000   -64.30  LINEAR    1.00955E-01   -12.81    2.09760E-01   167.19
  -50.00    50.00      -5.90   -0.54    0.57    0.00000   -61.66  LINEAR    1.13407E-01   -12.81    2.10262E-01   167.19
  -45.00    50.00      -5.05   -0.52    0.79    0.00000   -59.32  LINEAR    1.25063E-01   -12.82    2.10780E-01   167.18
  -40.00    50.00      -4.34   -0.50    1.00    0.00000   -57.27  LINEAR    1.35821E-01   -12.83    2.11300E-01   167.17
  -35.00    50.00      -3.73   -0.48    1.20    0.00000   -55.50  LINEAR    1.45584E-01   -12.83    2.11804E-01   167.17
  -30.00    50.00      -3.23   -0.46    1.38    0.00000   -53.99  LINEAR    1.54259E-01   -12.84    2.12278E-01   167.16
  -25.00    50.00      -2.82   -0.44    1.54    0.00000   -52.75  LINEAR    1.61760E-01   -12.84    2.12708E-01   167.16
  -20.00    50.00      -2.49   -0.43    1.67    0.00000   -51.74  LINEAR    1.68012E-01   -12.85    2.13079E-01   167.15
  -15.00    50.00      -2.24   -0.41    1.78    0.00000   -50.97  LINEAR    1.72946E-01   -12.85    2.13380E-01   167.15
  -10.00    50.00      -2.06   -0.40    1.86    0.00000   -50.43  LINEAR    1.76511E-01   -12.85    2.13603E-01   167.15
   -5.00    50.00      -1.96   -0.40    1.90    0.00000   -50.11  LINEAR    1.78666E-01   -12.85    2.13739E-01   167.15
    0.00    50.00      -1.92   -0.40    1.92    0.00000   -50.00  LINEAR    1.79387E-01   -12.85    2.13785E-01   167.15
 -180.00    55.00      -2.91    0.19    1.92    0.00000    55.00  LINEAR    1.60071E-01   167.15    2.28606E-01   167.15
 -175.00    55.00      -2.94    0.18    1.91    0.00000    55.10  LINEAR    1.59435E-01   167.15    2.28567E-01   167.15
 -170.00    55.00      -3.05    0.18    1.87    0.00000    55.41  LINEAR    1.57533E-01   167.15    2.28451E-01   167.15
 -165.00    55.00      -3.22    0.17    1.81    0.00000    55.93  LINEAR    1.54384E-01   167.15    2.28261E-01   167.15
 -160.00    55.00      -3.47    0.16    1.72    0.00000    56.66  LINEAR    1.50022E-01   167.15    2.28005E-01   167.15
 -155.00    55.00      -3.80    0.15    1.62    0.00000    57.60  LINEAR    1.44492E-01   167.16    2.27688E-01   167.16
 -150.00    55.00      -4.21    0.14    1.50    0.00000    58.77  LINEAR    1.37848E-01   167.16    2.27322E-01   167.16
 -145.00    55.00      -4.71    0.12    1.36    0.00000    60.16  LINEAR    1.30155E-01   167.16    2.26918E-01   167.16
 -140.00    55.00      -5.31    0.10    1.20    0.00000    61.79  LINEAR    1.21486E-01   167.17    2.26488E-01   167.17
 -135.00    55.00      -6.02    0.09    1.04    0.00000    63.66  LINEAR    1.11920E-01   167.17    2.26045E-01   167.17
 -130.00    55.00      -6.86    0.07    0.87    0.00000    65.77  LINEAR    1.01540E-01   167.18    2.25602E-01   167.18
 -125.00    55.00      -7.87    0.05    0.70    0.00000    68.12  LINEAR    9.04350E-02   167.18    2.25174E-01   167.18
 -120.00    55.00      -9.08    0.04    0.54    0.00000    70.70  LINEAR    7.86938E-02   167.19    2.24773E-01   167.19
 -115.00    55.00     -10.55    0.02    0.39    0.00000    73.52  LINEAR    6.64076E-02   167.19    2.24410E-01   167.19
 -110.00    55.00     -12.40    0.01    0.25    0.00000    76.53  LINEAR    5.36681E-02   167.19    2.24098E-01   167.19
 -105.00    55.00     -14.83    0.00    0.14    0.00000    79.73  LINEAR    4.05667E-02   167.20    2.23845E-01   167.20
 -100.00    55.00     -18.31    0.00    0.06    0.00000    83.07  LINEAR    2.71946E-02   167.20    2.23658E-01   167.20
  -95.00    55.00     -24.30   -0.01    0.01    0.00000    86.51  LINEAR    1.36423E-02   167.20    2.23544E-01   167.20
  -90.00    55.00    -999.99   -0.01   -0.01    0.00000    90.00  LINEAR    7.98687E-13   167.20    2.23506E-01   167.20
  -85.00    55.00     -24.30   -0.01    0.01    0.00000   -86.51  LINEAR    1.36423E-02   -12.80    2.23544E-01   167.20
  -80.00    55.00     -18.31    0.00    0.06    0.00000   -83.07  LINEAR    2.71946E-02   -12.80    2.23658E-01   167.20
  -75.00    55.00     -14.83    0.00    0.14    0.00000   -79.73  LINEAR    4.05667E-02   -12.80    2.23845E-01   167.20
  -70.00    55.00     -12.40    0.01    0.25    0.00000   -76.53  LINEAR    5.36681E-02   -12.81    2.24098E-01   167.19
  -65.00    55.00     -10.55    0.02    0.39    0.00000   -73.52  LINEAR    6.64076E-02   -12.81    2.24410E-01   167.19
  -60.00    55.00      -9.08    0.04    0.54    0.00000   -70.70  LINEAR    7.86938E-02   -12.81    2.24773E-01   167.19
  -55.00    55.00      -7.87    0.05    0.70    0.00000   -68.12  LINEAR    9.04350E-02   -12.82    2.25174E-01   167.18
  -50.00    55.00      -6.86    0.07    0.87    0.00000   -65.77  LINEAR    1.01540E-01   -12.82    2.25602E-01   167.18
  -45.00    55.00      -6.02    0.09    1.04    0.00000   -63.66  LINEAR    1.11920E-01   -12.83    2.26045E-01   167.17
  -40.00    55.00      -5.31    0.10    1.20    0.00000   -61.79  LINEAR    1.21486E-01   -12.83    2.26488E-01   167.17
  -35.00    55.00      -4.71    0.12    1.36    0.00000   -60.16  LINEAR    1.30155E-01   -12.84    2.26918E-01   167.16
  -30.00    55.00      -4.21    0.14    1.50    0.00000   -58.77  LINEAR    1.37848E-01   -12.84    2.27322E-01   167.16
  -25.00    55.00      -3.80    0.15    1.62    0.00000   -57.60  LINEAR    1.44492E-01   -12.84    2.27688E-01   167.16
  -20.00    55.00      -3.47    0.16    1.72    0.00000   -56.66  LINEAR    1.50022E-01   -12.85    2.28005E-01   167.15
  -15.00    55.00      -3.22    0.17    1.81    0.00000   -55.93  LINEAR    1.54384E-01   -12.85    2.28261E-01   167.15
  -10.00    55.00      -3.05    0.18    1.87    0.00000   -55.41  LINEAR    1.57533E-01   -12.85    2.28451E-01   167.15
   -5.00    55.00      -2.94    0.18    1.91    0.00000   -55.10  LINEAR    1.59435E-01   -12.85    2.28567E-01   167.15
    0.00    55.00      -2.91    0.19    1.92    0.00000   -55.00  LINEAR    1.60071E-01   -12.85    2.28606E-01   167.15
 -180.00    60.00      -4.10    0.67    1.92    0.00000    60.00  LINEAR    1.39538E-01   167.15    2.41687E-01   167.15
 -175.00    60.00      -4.14    0.67    1.91    0.00000    60.09  LINEAR    1.38989E-01   167.15    2.41656E-01   167.15
 -170.00    60.00      -4.24    0.66    1.88    0.00000    60.38  LINEAR    1.37347E-01   167.15    2.41562E-01   167.15
 -165.00    60.00      -4.41    0.66    1.83    0.00000    60.85  LINEAR    1.34629E-01   167.15    2.41410E-01   167.15
 -160.00    60.00      -4.66    0.65    1.77    0.00000    61.52  LINEAR    1.30861E-01   167.15    2.41204E-01   167.15
 -155.00    60.00      -4.98    0.64    1.69    0.00000    62.38  LINEAR    1.26079E-01   167.15    2.40950E-01   167.15
 -150.00    60.00      -5.39    0.63    1.60    0.00000    63.43  LINEAR    1.20328E-01   167.16    2.40655E-01   167.16
 -145.00    60.00      -5.88    0.62    1.50    0.00000    64.69  LINEAR    1.13661E-01   167.16    2.40330E-01   167.16
 -140.00    60.00      -6.48    0.61    1.38    0.00000    66.14  LINEAR    1.06139E-01   167.16    2.39984E-01   167.16
 -135.00    60.00      -7.19    0.59    1.26    0.00000    67.79  LINEAR    9.78275E-02   167.17    2.39627E-01   167.17
 -130.00    60.00      -8.03    0.58    1.14    0.00000    69.64  LINEAR    8.87968E-02   167.17    2.39271E-01   167.17
 -125.00    60.00      -9.03    0.57    1.02    0.00000    71.68  LINEAR    7.91215E-02   167.17    2.38926E-01   167.17
 -120.00    60.00     -10.23    0.56    0.90    0.00000    73.90  LINEAR    6.88787E-02   167.18    2.38603E-01   167.18
 -115.00    60.00     -11.71    0.55    0.80    0.00000    76.29  LINEAR    5.81475E-02   167.18    2.38311E-01   167.18
 -110.00    60.00     -13.55    0.54    0.70    0.00000    78.83  LINEAR    4.70084E-02   167.18    2.38059E-01   167.18
 -105.00    60.00     -15.98    0.53    0.63    0.00000    81.50  LINEAR    3.55425E-02   167.18    2.37855E-01   167.18
 -100.00    60.00     -19.45    0.52    0.57    0.00000    84.27  LINEAR    2.38313E-02   167.19    2.37704E-01   167.19
  -95.00    60.00     -25.44    0.52    0.53    0.00000    87.12  LINEAR    1.19565E-02   167.19    2.37612E-01   167.19
  -90.00    60.00    -999.99    0.52    0.52    0.00000    90.00  LINEAR    7.00023E-13   167.19    2.37581E-01   167.19
  -85.00    60.00     -25.44    0.52    0.53    0.00000   -87.12  LINEAR    1.19565E-02   -12.81    2.37612E-01   167.19
  -80.00    60.00     -19.45    0.52    0.57    0.00000   -84.27  LINEAR    2.38313E-02   -12.81    2.37704E-01   167.19
  -75.00    60.00     -15.98    0.53    0.63    0.00000   -81.50  LINEAR    3.55425E-02   -12.82    2.37855E-01   167.18
  -70.00    60.00     -13.55    0.54    0.70    0.00000   -78.83  LINEAR    4.70084E-02   -12.82    2.38059E-01   167.18
  -65.00    60.00     -11.71    0.55    0.80    0.00000   -76.29  LINEAR    5.81475E-02   -12.82    2.38311E-01   167.18
  -60.00    60.00     -10.23    0.56    0.90    0.00000   -73.90  LINEAR    6.88787E-02   -12.82    2.38603E-01   167.18
  -55.00    60.00      -9.03    0.57    1.02    0.00000   -71.68  LINEAR    7.91215E-02   -12.83    2.38926E-01   167.17
  -50.00    60.00      -8.03    0.58    1.14    0.00000   -69.64  LINEAR    8.87968E-02   -12.83    2.39271E-01   167.17
  -45.00    60.00      -7.19    0.59    1.26    0.00000   -67.79  LINEAR    9.78275E-02   -12.83    2.39627E-01   167.17
  -40.00    60.00      -6.48    0.61    1.38    0.00000   -66.14  LINEAR    1.06139E-01   -12.84    2.39984E-01   167.16
  -35.00    60.00      -5.88    0.62    1.50    0.00000   -64.69  LINEAR    1.13661E-01   -12.84    2.40330E-01   167.16
  -30.00    60.00      -5.39    0.63    1.60    0.00000   -63.43  LINEAR    1.20328E-01   -12.84    2.40655E-01   167.16
  -25.00    60.00      -4.98    0.64    1.69    0.00000   -62.38  LINEAR    1.26079E-01   -12.85    2.40950E-01   167.15
  -20.00    60.00      -4.66    0.65    1.77    0.00000   -61.52  LINEAR    1.30861E-01   -12.85    2.41204E-01   167.15
  -15.00    60.00      -4.41    0.66    1.83    0.00000   -60.85  LINEAR    1.34629E-01   -12.85    2.41410E-01   167.15
  -10.00    60.00      -4.24    0.66    1.88    0.00000   -60.38  LINEAR    1.37347E-01   -12.85    2.41562E-01   167.15
   -5.00    60.00      -4.14    0.67    1.91    0.00000   -60.09  LINEAR    1.38989E-01   -12.85    2.41656E-01   167.15
    0.00    60.00      -4.10    0.67    1.92    0.00000   -60.00  LINEAR    1.39538E-01   -12.85    2.41687E-01   167.15
 -180.00    65.00      -5.56    1.06    1.92    0.00000    65.00  LINEAR    1.17943E-01   167.15    2.52929E-01   167.15
 -175.00    65.00      -5.60    1.06    1.91    0.00000    65.08  LINEAR    1.17483E-01   167.15    2.52905E-01   167.15
 -170.00    65.00      -5.70    1.06    1.89    0.00000    65.33  LINEAR    1.16108E-01   167.15    2.52836E-01   167.15
 -165.00    65.00      -5.87    1.06    1.86    0.00000    65.75  LINEAR    1.13831E-01   167.15    2.52722E-01   167.15
 -160.00    65.00      -6.12    1.05    1.81    0.00000    66.34  LINEAR    1.10672E-01   167.15    2.52568E-01   167.15
 -155.00    65.00      -6.44    1.04    1.76    0.00000    67.09  LINEAR    1.06659E-01   167.15    2.52377E-01   167.15
 -150.00    65.00      -6.84    1.04    1.69    0.00000    68.01  LINEAR    1.01830E-01   167.15    2.52157E-01   167.15
 -145.00    65.00      -7.33    1.03    1.62    0.00000    69.09  LINEAR    9.62253E-02   167.16    2.51914E-01   167.16
 -140.00    65.00      -7.92    1.02    1.54    0.00000    70.34  LINEAR    8.98941E-02   167.16    2.51655E-01   167.16
 -135.00    65.00      -8.63    1.01    1.46    0.00000    71.75  LINEAR    8.28898E-02   167.16    2.51388E-01   167.16
 -130.00    65.00      -9.46    1.00    1.37    0.00000    73.31  LINEAR    7.52701E-02   167.16    2.51121E-01   167.16
 -125.00    65.00     -10.46    0.99    1.29    0.00000    75.03  LINEAR    6.70963E-02   167.17    2.50862E-01   167.17
 -120.00    65.00     -11.66    0.98    1.21    0.00000    76.88  LINEAR    5.84329E-02   167.17    2.50620E-01   167.17
 -115.00    65.00     -13.13    0.98    1.14    0.00000    78.85  LINEAR    4.93465E-02   167.17    2.50401E-01   167.17
 -110.00    65.00     -14.98    0.97    1.08    0.00000    80.94  LINEAR    3.99054E-02   167.17    2.50212E-01   167.17
 -105.00    65.00     -17.40    0.96    1.03    0.00000    83.12  LINEAR    3.01794E-02   167.17    2.50059E-01   167.17
 -100.00    65.00     -20.87    0.96    0.99    0.00000    85.37  LINEAR    2.02390E-02   167.17    2.49946E-01   167.17
  -95.00    65.00     -26.86    0.96    0.97    0.00000    87.67  LINEAR    1.01553E-02   167.17    2.49877E-01   167.17
  -90.00    65.00    -999.99    0.96    0.96    0.00000    90.00  LINEAR    5.94591E-13   167.17    2.49853E-01   167.17
  -85.00    65.00     -26.86    0.96    0.97    0.00000   -87.67  LINEAR    1.01553E-02   -12.83    2.49877E-01   167.17
  -80.00    65.00     -20.87    0.96    0.99    0.00000   -85.37  LINEAR    2.02390E-02   -12.83    2.49946E-01   167.17
  -75.00    65.00     -17.40    0.96    1.03    0.00000   -83.12  LINEAR    3.01794E-02   -12.83    2.50059E-01   167.17
  -70.00    65.00     -14.98    0.97    1.08    0.00000   -80.94  LINEAR    3.99054E-02   -12.83    2.50212E-01   167.17
  -65.00    65.00     -13.13    0.98    1.14    0.00000   -78.85  LINEAR    4.93465E-02   -12.83    2.50401E-01   167.17
  -60.00    65.00     -11.66    0.98    1.21    0.00000   -76.88  LINEAR    5.84329E-02   -12.83    2.50620E-01   167.17
  -55.00    65.00     -10.46    0.99    1.29    0.00000   -75.03  LINEAR    6.70963E-02   -12.83    2.50862E-01   167.17
  -50.00    65.00      -9.46    1.00    1.37    0.00000   -73.31  LINEAR    7.52701E-02   -12.84    2.51121E-01   167.16
  -45.00    65.00      -8.63    1.01    1.46    0.00000   -71.75  LINEAR    8.28898E-02   -12.84    2.51388E-01   167.16
  -40.00    65.00      -7.92    1.02    1.54    0.00000   -70.34  LINEAR    8.98941E-02   -12.84    2.51655E-01   167.16
  -35.00    65.00      -7.33    1.03    1.62    0.00000   -69.09  LINEAR    9.62253E-02   -12.84    2.51914E-01   167.16
  -30.00    65.00      -6.84    1.04    1.69    0.00000   -68.01  LINEAR    1.01830E-01   -12.85    2.52157E-01   167.15
  -25.00    65.00      -6.44    1.04    1.76    0.00000   -67.09  LINEAR    1.06659E-01   -12.85    2.52377E-01   167.15
  -20.00    65.00      -6.12    1.05    1.81    0.00000   -66.34  LINEAR    1.10672E-01   -12.85    2.52568E-01   167.15
  -15.00    65.00      -5.87    1.06    1.86    0.00000   -65.75  LINEAR    1.13831E-01   -12.85    2.52722E-01   167.15
  -10.00    65.00      -5.70    1.06    1.89    0.00000   -65.33  LINEAR    1.16108E-01   -12.85    2.52836E-01   167.15
   -5.00    65.00      -5.60    1.06    1.91    0.00000   -65.08  LINEAR    1.17483E-01   -12.85    2.52905E-01   167.15
    0.00    65.00      -5.56    1.06    1.92    0.00000   -65.00  LINEAR    1.17943E-01   -12.85    2.52929E-01   167.15
 -180.00    70.00      -7.40    1.38    1.92    0.00000    70.00  LINEAR    9.54496E-02   167.15    2.62246E-01   167.15
 -175.00    70.00      -7.43    1.38    1.91    0.00000    70.07  LINEAR    9.50806E-02   167.15    2.62230E-01   167.15
 -170.00    70.00      -7.54    1.38    1.90    0.00000    70.28  LINEAR    9.39768E-02   167.15    2.62182E-01   167.15
 -165.00    70.00      -7.71    1.37    1.88    0.00000    70.63  LINEAR    9.21478E-02   167.15    2.62105E-01   167.15
 -160.00    70.00      -7.95    1.37    1.85    0.00000    71.12  LINEAR    8.96094E-02   167.15    2.62000E-01   167.15
 -155.00    70.00      -8.27    1.37    1.81    0.00000    71.74  LINEAR    8.63832E-02   167.15    2.61871E-01   167.15
 -150.00    70.00      -8.67    1.36    1.77    0.00000    72.50  LINEAR    8.24966E-02   167.15    2.61722E-01   167.15
 -145.00    70.00      -9.16    1.35    1.72    0.00000    73.40  LINEAR    7.79822E-02   167.15    2.61556E-01   167.15
 -140.00    70.00      -9.74    1.35    1.67    0.00000    74.42  LINEAR    7.28772E-02   167.15    2.61380E-01   167.15
 -135.00    70.00     -10.45    1.34    1.62    0.00000    75.57  LINEAR    6.72235E-02   167.16    2.61198E-01   167.16
 -130.00    70.00     -11.28    1.34    1.57    0.00000    76.83  LINEAR    6.10663E-02   167.16    2.61017E-01   167.16
 -125.00    70.00     -12.28    1.33    1.52    0.00000    78.21  LINEAR    5.44543E-02   167.16    2.60841E-01   167.16
 -120.00    70.00     -13.47    1.33    1.47    0.00000    79.69  LINEAR    4.74391E-02   167.16    2.60676E-01   167.16
 -115.00    70.00     -14.94    1.32    1.42    0.00000    81.26  LINEAR    4.00743E-02   167.16    2.60527E-01   167.16
 -110.00    70.00     -16.78    1.32    1.38    0.00000    82.90  LINEAR    3.24157E-02   167.16    2.60398E-01   167.16
 -105.00    70.00     -19.21    1.31    1.35    0.00000    84.62  LINEAR    2.45203E-02   167.16    2.60294E-01   167.16
 -100.00    70.00     -22.67    1.31    1.33    0.00000    86.38  LINEAR    1.64464E-02   167.16    2.60217E-01   167.16
  -95.00    70.00     -28.66    1.31    1.31    0.00000    88.18  LINEAR    8.25313E-03   167.16    2.60170E-01   167.16
  -90.00    70.00    -999.99    1.31    1.31    0.00000    90.00  LINEAR    4.83233E-13   167.16    2.60154E-01   167.16
  -85.00    70.00     -28.66    1.31    1.31    0.00000   -88.18  LINEAR    8.25313E-03   -12.84    2.60170E-01   167.16
  -80.00    70.00     -22.67    1.31    1.33    0.00000   -86.38  LINEAR    1.64464E-02   -12.84    2.60217E-01   167.16
  -75.00    70.00     -19.21    1.31    1.35    0.00000   -84.62  LINEAR    2.45203E-02   -12.84    2.60294E-01   167.16
  -70.00    70.00     -16.78    1.32    1.38    0.00000   -82.90  LINEAR    3.24157E-02   -12.84    2.60398E-01   167.16
  -65.00    70.00     -14.94    1.32    1.42    0.00000   -81.26  LINEAR    4.00743E-02   -12.84    2.60527E-01   167.16
  -60.00    70.00     -13.47    1.33    1.47    0.00000   -79.69  LINEAR    4.74391E-02   -12.84    2.60676E-01   167.16
  -55.00    70.00     -12.28    1.33    1.52    0.00000   -78.21  LINEAR    5.44543E-02   -12.84    2.60841E-01   167.16
  -50.00    70.00     -11.28    1.34    1.57    0.00000   -76.83  LINEAR    6.10663E-02   -12.84    2.61017E-01   167.16
  -45.00    70.00     -10.45    1.34    1.62    0.00000   -75.57  LINEAR    6.72235E-02   -12.84    2.61198E-01   167.16
  -40.00    70.00      -9.74    1.35    1.67    0.00000   -74.42  LINEAR    7.28772E-02   -12.85    2.61380E-01   167.15
  -35.00    70.00      -9.16    1.35    1.72    0.00000   -73.40  LINEAR    7.79822E-02   -12.85    2.61556E-01   167.15
  -30.00    70.00      -8.67    1.36    1.77    0.00000   -72.50  LINEAR    8.24966E-02   -12.85    2.61722E-01   167.15
  -25.00    70.00      -8.27    1.37    1.81    0.00000   -71.74  LINEAR    8.63832E-02   -12.85    2.61871E-01   167.15
  -20.00    70.00      -7.95    1.37    1.85    0.00000   -71.12  LINEAR    8.96094E-02   -12.85    2.62000E-01   167.15
  -15.00    70.00      -7.71    1.37    1.88    0.00000   -70.63  LINEAR    9.21478E-02   -12.85    2.62105E-01   167.15
  -10.00    70.00      -7.54    1.38    1.90    0.00000   -70.28  LINEAR    9.39768E-02   -12.85    2.62182E-01   167.15
   -5.00    70.00      -7.43    1.38    1.91    0.00000   -70.07  LINEAR    9.50806E-02   -12.85    2.62230E-01   167.15
    0.00    70.00      -7.40    1.38    1.92    0.00000   -70.00  LINEAR    9.54496E-02   -12.85    2.62246E-01   167.15
 -180.00    75.00      -9.82    1.62    1.92    0.00000    75.00  LINEAR    7.22302E-02   167.15    2.69567E-01   167.15
 -175.00    75.00      -9.86    1.62    1.92    0.00000    75.05  LINEAR    7.19528E-02   167.15    2.69557E-01   167.15
 -170.00    75.00      -9.96    1.62    1.91    0.00000    75.22  LINEAR    7.11230E-02   167.15    2.69529E-01   167.15
 -165.00    75.00     -10.13    1.61    1.90    0.00000    75.49  LINEAR    6.97476E-02   167.15    2.69484E-01   167.15
 -160.00    75.00     -10.37    1.61    1.88    0.00000    75.87  LINEAR    6.78378E-02   167.15    2.69422E-01   167.15
 -155.00    75.00     -10.68    1.61    1.86    0.00000    76.35  LINEAR    6.54092E-02   167.15    2.69346E-01   167.15
 -150.00    75.00     -11.08    1.61    1.83    0.00000    76.94  LINEAR    6.24816E-02   167.15    2.69258E-01   167.15
 -145.00    75.00     -11.57    1.60    1.81    0.00000    77.62  LINEAR    5.90784E-02   167.15    2.69161E-01   167.15
 -140.00    75.00     -12.15    1.60    1.78    0.00000    78.40  LINEAR    5.52269E-02   167.15    2.69057E-01   167.15
 -135.00    75.00     -12.85    1.60    1.75    0.00000    79.27  LINEAR    5.09576E-02   167.15    2.68950E-01   167.15
 -130.00    75.00     -13.68    1.59    1.72    0.00000    80.23  LINEAR    4.63040E-02   167.15    2.68843E-01   167.15
 -125.00    75.00     -14.68    1.59    1.69    0.00000    81.26  LINEAR    4.13023E-02   167.15    2.68739E-01   167.15
 -120.00    75.00     -15.87    1.59    1.66    0.00000    82.37  LINEAR    3.59912E-02   167.15    2.68642E-01   167.15
 -115.00    75.00     -17.34    1.58    1.64    0.00000    83.54  LINEAR    3.04111E-02   167.15    2.68554E-01   167.15
 -110.00    75.00     -19.18    1.58    1.62    0.00000    84.76  LINEAR    2.46044E-02   167.16    2.68478E-01   167.16
 -105.00    75.00     -21.60    1.58    1.60    0.00000    86.03  LINEAR    1.86148E-02   167.16    2.68416E-01   167.16
 -100.00    75.00     -25.07    1.58    1.59    0.00000    87.34  LINEAR    1.24870E-02   167.16    2.68371E-01   167.16
[...]
  -60.00   340.00      -5.04   -7.80   -3.19    0.00000    36.05  LINEAR    1.25286E-01   -12.74    9.12007E-02   -12.74
  -55.00   340.00      -3.80   -7.75   -2.33    0.00000    32.40  LINEAR    1.44416E-01   -12.76    9.16412E-02   -12.76
  -50.00   340.00      -2.77   -7.71   -1.56    0.00000    29.52  LINEAR    1.62675E-01   -12.77    9.21125E-02   -12.77
  -45.00   340.00      -1.90   -7.66   -0.87    0.00000    27.24  LINEAR    1.79901E-01   -12.78    9.26005E-02   -12.78
  -40.00   340.00      -1.15   -7.62   -0.27    0.00000    25.41  LINEAR    1.95927E-01   -12.79    9.30905E-02   -12.79
  -35.00   340.00      -0.53   -7.57    0.25    0.00000    23.96  LINEAR    2.10583E-01   -12.81    9.35675E-02   -12.81
  -30.00   340.00       0.00   -7.53    0.70    0.00000    22.80  LINEAR    2.23702E-01   -12.82    9.40168E-02   -12.82
  -25.00   340.00       0.43   -7.49    1.08    0.00000    21.88  LINEAR    2.35122E-01   -12.83    9.44243E-02   -12.83
  -20.00   340.00       0.78   -7.46    1.38    0.00000    21.17  LINEAR    2.44694E-01   -12.84    9.47771E-02   -12.84
  -15.00   340.00       1.04   -7.44    1.62    0.00000    20.65  LINEAR    2.52287E-01   -12.84    9.50641E-02   -12.84
  -10.00   340.00       1.23   -7.42    1.79    0.00000    20.28  LINEAR    2.57792E-01   -12.85    9.52759E-02   -12.85
   -5.00   340.00       1.34   -7.40    1.88    0.00000    20.07  LINEAR    2.61128E-01   -12.85    9.54058E-02   -12.85
    0.00   340.00       1.38   -7.40    1.92    0.00000    20.00  LINEAR    2.62246E-01   -12.85    9.54496E-02   -12.85
 -180.00   345.00       1.62   -9.82    1.92    0.00000   -15.00  LINEAR    2.69567E-01   167.15    7.22302E-02   -12.85
 -175.00   345.00       1.58   -9.83    1.88    0.00000   -15.05  LINEAR    2.68411E-01   167.15    7.21952E-02   -12.85
 -170.00   345.00       1.47   -9.84    1.78    0.00000   -15.22  LINEAR    2.64961E-01   167.15    7.20913E-02   -12.85
 -165.00   345.00       1.28   -9.86    1.60    0.00000   -15.50  LINEAR    2.59270E-01   167.16    7.19219E-02   -12.84
 -160.00   345.00       1.01   -9.89    1.35    0.00000   -15.92  LINEAR    2.51424E-01   167.16    7.16925E-02   -12.84
 -155.00   345.00       0.66   -9.92    1.03    0.00000   -16.47  LINEAR    2.41538E-01   167.17    7.14105E-02   -12.83
 -150.00   345.00       0.23   -9.96    0.63    0.00000   -17.19  LINEAR    2.29750E-01   167.18    7.10849E-02   -12.82
 -145.00   345.00      -0.30  -10.00    0.14    0.00000   -18.11  LINEAR    2.16218E-01   167.20    7.07260E-02   -12.80
 -140.00   345.00      -0.93  -10.05   -0.43    0.00000   -19.28  LINEAR    2.01110E-01   167.21    7.03449E-02   -12.79
 -135.00   345.00      -1.67  -10.10   -1.09    0.00000   -20.75  LINEAR    1.84605E-01   167.22    6.99536E-02   -12.78
 -130.00   345.00      -2.55  -10.15   -1.85    0.00000   -22.63  LINEAR    1.66878E-01   167.24    6.95640E-02   -12.76
 -125.00   345.00      -3.58  -10.20   -2.73    0.00000   -25.04  LINEAR    1.48105E-01   167.25    6.91878E-02   -12.75
 -120.00   345.00      -4.82  -10.24   -3.73    0.00000   -28.19  LINEAR    1.28450E-01   167.26    6.88362E-02   -12.74
 -115.00   345.00      -6.32  -10.28   -4.85    0.00000   -32.38  LINEAR    1.08071E-01   167.27    6.85196E-02   -12.73
 -110.00   345.00      -8.19  -10.31   -6.12    0.00000   -38.08  LINEAR    8.71133E-02   167.28    6.82473E-02   -12.72
 -105.00   345.00     -10.64  -10.34   -7.48    0.00000   -45.99  LINEAR    6.57090E-02   167.29    6.80269E-02   -12.71
 -100.00   345.00     -14.13  -10.36   -8.84    0.00000   -57.05  LINEAR    4.39808E-02   167.30    6.78649E-02   -12.70
  -95.00   345.00     -20.13  -10.38   -9.94    0.00000   -71.98  LINEAR    2.20422E-02   167.30    6.77659E-02   -12.70
  -90.00   345.00    -999.99  -10.38  -10.38    0.00000   -90.00  LINEAR    1.29005E-12   167.30    6.77326E-02   -12.70
  -85.00   345.00     -20.13  -10.38   -9.94    0.00000    71.98  LINEAR    2.20422E-02   -12.70    6.77659E-02   -12.70
  -80.00   345.00     -14.13  -10.36   -8.84    0.00000    57.05  LINEAR    4.39808E-02   -12.70    6.78649E-02   -12.70
  -75.00   345.00     -10.64  -10.34   -7.48    0.00000    45.99  LINEAR    6.57090E-02   -12.71    6.80269E-02   -12.71
  -70.00   345.00      -8.19  -10.31   -6.12    0.00000    38.08  LINEAR    8.71133E-02   -12.72    6.82473E-02   -12.72
  -65.00   345.00      -6.32  -10.28   -4.85    0.00000    32.38  LINEAR    1.08071E-01   -12.73    6.85196E-02   -12.73
  -60.00   345.00      -4.82  -10.24   -3.73    0.00000    28.19  LINEAR    1.28450E-01   -12.74    6.88362E-02   -12.74
  -55.00   345.00      -3.58  -10.20   -2.73    0.00000    25.04  LINEAR    1.48105E-01   -12.75    6.91878E-02   -12.75
  -50.00   345.00      -2.55  -10.15   -1.85    0.00000    22.63  LINEAR    1.66878E-01   -12.76    6.95640E-02   -12.76
  -45.00   345.00      -1.67  -10.10   -1.09    0.00000    20.75  LINEAR    1.84605E-01   -12.78    6.99536E-02   -12.78
  -40.00   345.00      -0.93  -10.05   -0.43    0.00000    19.28  LINEAR    2.01110E-01   -12.79    7.03449E-02   -12.79
  -35.00   345.00      -0.30  -10.00    0.14    0.00000    18.11  LINEAR    2.16218E-01   -12.80    7.07260E-02   -12.80
  -30.00   345.00       0.23   -9.96    0.63    0.00000    17.19  LINEAR    2.29750E-01   -12.82    7.10849E-02   -12.82
  -25.00   345.00       0.66   -9.92    1.03    0.00000    16.47  LINEAR    2.41538E-01   -12.83    7.14105E-02   -12.83
  -20.00   345.00       1.01   -9.89    1.35    0.00000    15.92  LINEAR    2.51424E-01   -12.84    7.16925E-02   -12.84
  -15.00   345.00       1.28   -9.86    1.60    0.00000    15.50  LINEAR    2.59270E-01   -12.84    7.19219E-02   -12.84
  -10.00   345.00       1.47   -9.84    1.78    0.00000    15.22  LINEAR    2.64961E-01   -12.85    7.20913E-02   -12.85
   -5.00   345.00       1.58   -9.83    1.88    0.00000    15.05  LINEAR    2.68411E-01   -12.85    7.21952E-02   -12.85
    0.00   345.00       1.62   -9.82    1.92    0.00000    15.00  LINEAR    2.69567E-01   -12.85    7.22302E-02   -12.85
 -180.00   350.00       1.79  -13.29    1.92    0.00000   -10.00  LINEAR    2.74836E-01   167.15    4.84610E-02   -12.85
 -175.00   350.00       1.75  -13.29    1.88    0.00000   -10.04  LINEAR    2.73652E-01   167.15    4.84366E-02   -12.85
 -170.00   350.00       1.63  -13.31    1.77    0.00000   -10.15  LINEAR    2.70120E-01   167.15    4.83642E-02   -12.85
 -165.00   350.00       1.45  -13.33    1.59    0.00000   -10.35  LINEAR    2.64294E-01   167.16    4.82461E-02   -12.84
 -160.00   350.00       1.18  -13.36    1.33    0.00000   -10.63  LINEAR    2.56264E-01   167.16    4.80861E-02   -12.84
 -155.00   350.00       0.83  -13.39    0.99    0.00000   -11.01  LINEAR    2.46149E-01   167.17    4.78895E-02   -12.83
 -150.00   350.00       0.39  -13.43    0.57    0.00000   -11.51  LINEAR    2.34093E-01   167.19    4.76625E-02   -12.81
 -145.00   350.00      -0.14  -13.48    0.06    0.00000   -12.15  LINEAR    2.20261E-01   167.20    4.74123E-02   -12.80
 -140.00   350.00      -0.77  -13.53   -0.54    0.00000   -12.96  LINEAR    2.04827E-01   167.21    4.71468E-02   -12.79
 -135.00   350.00      -1.51  -13.58   -1.25    0.00000   -14.00  LINEAR    1.87975E-01   167.23    4.68741E-02   -12.77
 -130.00   350.00      -2.39  -13.63   -2.08    0.00000   -15.34  LINEAR    1.69887E-01   167.24    4.66027E-02   -12.76
 -125.00   350.00      -3.43  -13.68   -3.04    0.00000   -17.09  LINEAR    1.50742E-01   167.25    4.63406E-02   -12.75
 -120.00   350.00      -4.67  -13.72   -4.16    0.00000   -19.43  LINEAR    1.30711E-01   167.27    4.60958E-02   -12.73
 -115.00   350.00      -6.17  -13.76   -5.48    0.00000   -22.65  LINEAR    1.09953E-01   167.28    4.58753E-02   -12.72
 -110.00   350.00      -8.05  -13.80   -7.02    0.00000   -27.27  LINEAR    8.86162E-02   167.29    4.56857E-02   -12.71
 -105.00   350.00     -10.50  -13.83   -8.84    0.00000   -34.27  LINEAR    6.68339E-02   167.30    4.55323E-02   -12.70
 -100.00   350.00     -13.98  -13.85  -10.91    0.00000   -45.44  LINEAR    4.47295E-02   167.30    4.54195E-02   -12.70
  -95.00   350.00     -19.99  -13.86  -12.92    0.00000   -63.70  LINEAR    2.24161E-02   167.31    4.53506E-02   -12.69
  -90.00   350.00    -999.99  -13.87  -13.87    0.00000   -90.00  LINEAR    1.31191E-12   167.31    4.53274E-02   -12.69
  -85.00   350.00     -19.99  -13.86  -12.92    0.00000    63.70  LINEAR    2.24161E-02   -12.69    4.53506E-02   -12.69
  -80.00   350.00     -13.98  -13.85  -10.91    0.00000    45.44  LINEAR    4.47295E-02   -12.70    4.54195E-02   -12.70
  -75.00   350.00     -10.50  -13.83   -8.84    0.00000    34.27  LINEAR    6.68339E-02   -12.70    4.55323E-02   -12.70
  -70.00   350.00      -8.05  -13.80   -7.02    0.00000    27.27  LINEAR    8.86162E-02   -12.71    4.56857E-02   -12.71
  -65.00   350.00      -6.17  -13.76   -5.48    0.00000    22.65  LINEAR    1.09953E-01   -12.72    4.58753E-02   -12.72
  -60.00   350.00      -4.67  -13.72   -4.16    0.00000    19.43  LINEAR    1.30711E-01   -12.73    4.60958E-02   -12.73
  -55.00   350.00      -3.43  -13.68   -3.04    0.00000    17.09  LINEAR    1.50742E-01   -12.75    4.63406E-02   -12.75
  -50.00   350.00      -2.39  -13.63   -2.08    0.00000    15.34  LINEAR    1.69887E-01   -12.76    4.66027E-02   -12.76
  -45.00   350.00      -1.51  -13.58   -1.25    0.00000    14.00  LINEAR    1.87975E-01   -12.77    4.68741E-02   -12.77
  -40.00   350.00      -0.77  -13.53   -0.54    0.00000    12.96  LINEAR    2.04827E-01   -12.79    4.71468E-02   -12.79
  -35.00   350.00      -0.14  -13.48    0.06    0.00000    12.15  LINEAR    2.20261E-01   -12.80    4.74123E-02   -12.80
  -30.00   350.00       0.39  -13.43    0.57    0.00000    11.51  LINEAR    2.34093E-01   -12.81    4.76625E-02   -12.81
  -25.00   350.00       0.83  -13.39    0.99    0.00000    11.01  LINEAR    2.46149E-01   -12.83    4.78895E-02   -12.83
  -20.00   350.00       1.18  -13.36    1.33    0.00000    10.63  LINEAR    2.56264E-01   -12.84    4.80861E-02   -12.84
  -15.00   350.00       1.45  -13.33    1.59    0.00000    10.35  LINEAR    2.64294E-01   -12.84    4.82461E-02   -12.84
  -10.00   350.00       1.63  -13.31    1.77    0.00000    10.15  LINEAR    2.70120E-01   -12.85    4.83642E-02   -12.85
   -5.00   350.00       1.75  -13.29    1.88    0.00000    10.04  LINEAR    2.73652E-01   -12.85    4.84366E-02   -12.85
    0.00   350.00       1.79  -13.29    1.92    0.00000    10.00  LINEAR    2.74836E-01   -12.85    4.84610E-02   -12.85
 -180.00   355.00       1.89  -19.28    1.92    0.00000    -5.00  LINEAR    2.78014E-01   167.15    2.43231E-02   -12.85
 -175.00   355.00       1.85  -19.28    1.88    0.00000    -5.02  LINEAR    2.76813E-01   167.15    2.43105E-02   -12.85
 -170.00   355.00       1.73  -19.29    1.77    0.00000    -5.08  LINEAR    2.73230E-01   167.15    2.42733E-02   -12.85
 -165.00   355.00       1.54  -19.32    1.58    0.00000    -5.18  LINEAR    2.67322E-01   167.16    2.42127E-02   -12.84
 -160.00   355.00       1.28  -19.34    1.31    0.00000    -5.32  LINEAR    2.59180E-01   167.16    2.41305E-02   -12.84
 -155.00   355.00       0.93  -19.38    0.97    0.00000    -5.51  LINEAR    2.48926E-01   167.17    2.40296E-02   -12.83
 -150.00   355.00       0.49  -19.42    0.53    0.00000    -5.77  LINEAR    2.36708E-01   167.19    2.39130E-02   -12.81
 -145.00   355.00      -0.04  -19.47    0.01    0.00000    -6.10  LINEAR    2.22694E-01   167.20    2.37846E-02   -12.80
 -140.00   355.00      -0.67  -19.52   -0.62    0.00000    -6.52  LINEAR    2.07062E-01   167.21    2.36483E-02   -12.79
 -135.00   355.00      -1.42  -19.57   -1.36    0.00000    -7.05  LINEAR    1.90000E-01   167.23    2.35083E-02   -12.77
 -130.00   355.00      -2.30  -19.62   -2.22    0.00000    -7.75  LINEAR    1.71694E-01   167.24    2.33690E-02   -12.76
 -125.00   355.00      -3.34  -19.67   -3.24    0.00000    -8.67  LINEAR    1.52326E-01   167.26    2.32345E-02   -12.74
 -120.00   355.00      -4.58  -19.72   -4.45    0.00000    -9.92  LINEAR    1.32068E-01   167.27    2.31088E-02   -12.73
 -115.00   355.00      -6.08  -19.76   -5.90    0.00000   -11.70  LINEAR    1.11082E-01   167.28    2.29957E-02   -12.72
 -110.00   355.00      -7.96  -19.80   -7.68    0.00000   -14.35  LINEAR    8.95171E-02   167.29    2.28984E-02   -12.71
 -105.00   355.00     -10.41  -19.83   -9.94    0.00000   -18.68  LINEAR    6.75080E-02   167.30    2.28198E-02   -12.70
 -100.00   355.00     -13.90  -19.85  -12.92    0.00000   -26.74  LINEAR    4.51780E-02   167.31    2.27619E-02   -12.69
  -95.00   355.00     -19.90  -19.87  -16.87    0.00000   -45.11  LINEAR    2.26400E-02   167.31    2.27265E-02   -12.69
  -90.00   355.00    -999.99  -19.87  -19.87    0.00000   -90.00  LINEAR    1.32500E-12   167.31    2.27146E-02   -12.69
  -85.00   355.00     -19.90  -19.87  -16.87    0.00000    45.11  LINEAR    2.26400E-02   -12.69    2.27265E-02   -12.69
  -80.00   355.00     -13.90  -19.85  -12.92    0.00000    26.74  LINEAR    4.51780E-02   -12.69    2.27619E-02   -12.69
  -75.00   355.00     -10.41  -19.83   -9.94    0.00000    18.68  LINEAR    6.75080E-02   -12.70    2.28198E-02   -12.70
  -70.00   355.00      -7.96  -19.80   -7.68    0.00000    14.35  LINEAR    8.95171E-02   -12.71    2.28984E-02   -12.71
  -65.00   355.00      -6.08  -19.76   -5.90    0.00000    11.70  LINEAR    1.11082E-01   -12.72    2.29957E-02   -12.72
  -60.00   355.00      -4.58  -19.72   -4.45    0.00000     9.92  LINEAR    1.32068E-01   -12.73    2.31088E-02   -12.73
  -55.00   355.00      -3.34  -19.67   -3.24    0.00000     8.67  LINEAR    1.52326E-01   -12.74    2.32345E-02   -12.74
  -50.00   355.00      -2.30  -19.62   -2.22    0.00000     7.75  LINEAR    1.71694E-01   -12.76    2.33690E-02   -12.76
  -45.00   355.00      -1.42  -19.57   -1.36    0.00000     7.05  LINEAR    1.90000E-01   -12.77    2.35083E-02   -12.77
  -40.00   355.00      -0.67  -19.52   -0.62    0.00000     6.52  LINEAR    2.07062E-01   -12.79    2.36483E-02   -12.79
  -35.00   355.00      -0.04  -19.47    0.01    0.00000     6.10  LINEAR    2.22694E-01   -12.80    2.37846E-02   -12.80
  -30.00   355.00       0.49  -19.42    0.53    0.00000     5.77  LINEAR    2.36708E-01   -12.81    2.39130E-02   -12.81
  -25.00   355.00       0.93  -19.38    0.97    0.00000     5.51  LINEAR    2.48926E-01   -12.83    2.40296E-02   -12.83
  -20.00   355.00       1.28  -19.34    1.31    0.00000     5.32  LINEAR    2.59180E-01   -12.84    2.41305E-02   -12.84
  -15.00   355.00       1.54  -19.32    1.58    0.00000     5.18  LINEAR    2.67322E-01   -12.84    2.42127E-02   -12.84
  -10.00   355.00       1.73  -19.29    1.77    0.00000     5.08  LINEAR    2.73230E-01   -12.85    2.42733E-02   -12.85
   -5.00   355.00       1.85  -19.28    1.88    0.00000     5.02  LINEAR    2.76813E-01   -12.85    2.43105E-02   -12.85
    0.00   355.00       1.89  -19.28    1.92    0.00000     5.00  LINEAR    2.78014E-01   -12.85    2.43231E-02   -12.85
 -180.00   360.00       1.92 -999.99    1.92    0.00000     0.00  LINEAR    2.79076E-01   167.15    5.69696E-12   167.15
 -175.00   360.00       1.88 -999.99    1.88    0.00000     0.00  LINEAR    2.77870E-01   167.15    5.69400E-12   167.15
 -170.00   360.00       1.77 -999.99    1.77    0.00000     0.00  LINEAR    2.74270E-01   167.15    5.68522E-12   167.15
 -165.00   360.00       1.58 -999.99    1.58    0.00000     0.00  LINEAR    2.68334E-01   167.16    5.67090E-12   167.16
 -160.00   360.00       1.31 -999.99    1.31    0.00000     0.00  LINEAR    2.60154E-01   167.16    5.65152E-12   167.16
 -155.00   360.00       0.96 -999.99    0.96    0.00000     0.00  LINEAR    2.49853E-01   167.17    5.62769E-12   167.17
 -150.00   360.00       0.52 -999.99    0.52    0.00000     0.00  LINEAR    2.37581E-01   167.19    5.60019E-12   167.19
 -145.00   360.00      -0.01 -999.99   -0.01    0.00000     0.00  LINEAR    2.23506E-01   167.20    5.56987E-12   167.20
 -140.00   360.00      -0.64 -999.99   -0.64    0.00000     0.00  LINEAR    2.07808E-01   167.21    5.53771E-12   167.21
 -135.00   360.00      -1.39 -999.99   -1.39    0.00000     0.00  LINEAR    1.90676E-01   167.23    5.50468E-12   167.23
 -130.00   360.00      -2.27 -999.99   -2.27    0.00000     0.00  LINEAR    1.72297E-01   167.24    5.47180E-12   167.24
 -125.00   360.00      -3.31 -999.99   -3.31    0.00000     0.00  LINEAR    1.52854E-01   167.26    5.44007E-12   167.26
 -120.00   360.00      -4.55 -999.99   -4.55    0.00000     0.00  LINEAR    1.32520E-01   167.27    5.41043E-12   167.27
 -115.00   360.00      -6.05 -999.99   -6.05    0.00000     0.00  LINEAR    1.11458E-01   167.28    5.38374E-12   167.28
 -110.00   360.00      -7.93 -999.99   -7.93    0.00000     0.00  LINEAR    8.98172E-02   167.29    5.36079E-12   167.29
 -105.00   360.00     -10.38 -999.99  -10.38    0.00000     0.00  LINEAR    6.77326E-02   167.30    5.34222E-12   167.30
 -100.00   360.00     -13.87 -999.99  -13.87    0.00000     0.00  LINEAR    4.53274E-02   167.31    5.32857E-12   167.31
  -95.00   360.00     -19.87 -999.99  -19.87    0.00000     0.00  LINEAR    2.27146E-02   167.31    5.32023E-12   167.31
  -90.00   360.00    -999.99 -999.99 -999.99    0.00000     0.00            1.32936E-12   167.31    5.31742E-12   167.31
  -85.00   360.00     -19.87 -999.99  -19.87    0.00000     0.00  LINEAR    2.27146E-02   -12.69    5.32023E-12   167.31
  -80.00   360.00     -13.87 -999.99  -13.87    0.00000     0.00  LINEAR    4.53274E-02   -12.69    5.32857E-12   167.31
  -75.00   360.00     -10.38 -999.99  -10.38    0.00000     0.00  LINEAR    6.77326E-02   -12.70    5.34222E-12   167.30
  -70.00   360.00      -7.93 -999.99   -7.93    0.00000     0.00  LINEAR    8.98172E-02   -12.71    5.36079E-12   167.29
  -65.00   360.00      -6.05 -999.99   -6.05    0.00000     0.00  LINEAR    1.11458E-01   -12.72    5.38374E-12   167.28
  -60.00   360.00      -4.55 -999.99   -4.55    0.00000     0.00  LINEAR    1.32520E-01   -12.73    5.41043E-12   167.27
  -55.00   360.00      -3.31 -999.99   -3.31    0.00000     0.00  LINEAR    1.52854E-01   -12.74    5.44007E-12   167.26
  -50.00   360.00      -2.27 -999.99   -2.27    0.00000     0.00  LINEAR    1.72297E-01   -12.76    5.47180E-12   167.24
  -45.00   360.00      -1.39 -999.99   -1.39    0.00000     0.00  LINEAR    1.90676E-01   -12.77    5.50468E-12   167.23
  -40.00   360.00      -0.64 -999.99   -0.64    0.00000     0.00  LINEAR    2.07808E-01   -12.79    5.53771E-12   167.21
  -35.00   360.00      -0.01 -999.99   -0.01    0.00000     0.00  LINEAR    2.23506E-01   -12.80    5.56987E-12   167.20
  -30.00   360.00       0.52 -999.99    0.52    0.00000     0.00  LINEAR    2.37581E-01   -12.81    5.60019E-12   167.19
  -25.00   360.00       0.96 -999.99    0.96    0.00000     0.00  LINEAR    2.49853E-01   -12.83    5.62769E-12   167.17
  -20.00   360.00       1.31 -999.99    1.31    0.00000     0.00  LINEAR    2.60154E-01   -12.84    5.65152E-12   167.16
  -15.00   360.00       1.58 -999.99    1.58    0.00000     0.00  LINEAR    2.68334E-01   -12.84    5.67090E-12   167.16
  -10.00   360.00       1.77 -999.99    1.77    0.00000     0.00  LINEAR    2.74270E-01   -12.85    5.68522E-12   167.15
   -5.00   360.00       1.88 -999.99    1.88    0.00000     0.00  LINEAR    2.77870E-01   -12.85    5.69400E-12   167.15
    0.00   360.00       1.92 -999.99    1.92    0.00000     0.00  LINEAR    2.79076E-01   -12.85    5.69696E-12   167.15


   AVERAGE POWER GAIN= 1.00940E+00       SOLID ANGLE USED IN AVERAGING=( 4.0000)*PI STERADIANS.








 ***** DATA CARD NO.  8   EN   0    37    73  1003 -1.80000E+02  0.00000E+00  5.00000E+00  5.00000E+00  0.00000E+00  0.00000E+00

 RUN TIME =     0.040
