


                               __________________________________________
                              |                                          |
                              |  NUMERICAL ELECTROMAGNETICS CODE (nec2c) |
                              |   Translated to 'C' in Double Precision  |
                              |__________________________________________|



                               ---------------- COMMENTS ----------------
                               Geometry bug with plotly, plots only a half circle without the fix
                              



                               -------- STRUCTURE SPECIFICATION --------
                                     COORDINATES MUST BE INPUT IN
                                     METERS OR BE SCALED TO METERS
                                     BEFORE STRUCTURE INPUT IS ENDED

  WIRE                                                                                 SEG FIRST  LAST  TAG
   No:        X1         Y1         Z1         X2         Y2         Z2       RADIUS   No:   SEG   SEG  No:
     1 ARC RADIUS:   0.15915  FROM: -180.000 TO:  180.000 DEGREES           0.00409    64     1    64    1
     2 ARC RADIUS:   0.17507  FROM: -180.000 TO:  180.000 DEGREES           0.00409    64    65   128    2
     THE STRUCTURE HAS BEEN MOVED, MOVE DATA CARD IS:
     0     0    0.00000    0.00000    0.00000    0.00000   -1.00000    0.00000    2.00000

     TOTAL SEGMENTS USED: 128   SEGMENTS IN A SYMMETRIC CELL: 128   SYMMETRY FLAG: 0


                               ---------- SEGMENTATION DATA ----------
                                        COORDINATES IN METERS
                            I+ AND I- INDICATE THE SEGMENTS BEFORE AND AFTER I

   SEG    COORDINATES OF SEGM CENTER     SEGM    ORIENTATION ANGLES    WIRE    CONNECTION DATA   TAG
   No:       X         Y         Z      LENGTH     ALPHA      BETA    RADIUS    I-     I    I+   No:
     1   -0.1588    0.0000   -0.0078    0.0156  -87.1875    0.0000    0.0041    64     1     2     1
     2   -0.1572    0.0000   -0.0233    0.0156  -81.5625    0.0000    0.0041     1     2     3     1
     3   -0.1542    0.0000   -0.0386    0.0156  -75.9375    0.0000    0.0041     2     3     4     1
     4   -0.1497    0.0000   -0.0536    0.0156  -70.3125    0.0000    0.0041     3     4     5     1
     5   -0.1437    0.0000   -0.0680    0.0156  -64.6875    0.0000    0.0041     4     5     6     1
     6   -0.1363    0.0000   -0.0817    0.0156  -59.0625    0.0000    0.0041     5     6     7     1
     7   -0.1277    0.0000   -0.0947    0.0156  -53.4375    0.0000    0.0041     6     7     8     1
     8   -0.1178    0.0000   -0.1068    0.0156  -47.8125    0.0000    0.0041     7     8     9     1
     9   -0.1068    0.0000   -0.1178    0.0156  -42.1875    0.0000    0.0041     8     9    10     1
    10   -0.0947    0.0000   -0.1277    0.0156  -36.5625    0.0000    0.0041     9    10    11     1
    11   -0.0817    0.0000   -0.1363    0.0156  -30.9375    0.0000    0.0041    10    11    12     1
    12   -0.0680    0.0000   -0.1437    0.0156  -25.3125    0.0000    0.0041    11    12    13     1
    13   -0.0536    0.0000   -0.1497    0.0156  -19.6875    0.0000    0.0041    12    13    14     1
    14   -0.0386    0.0000   -0.1542    0.0156  -14.0625    0.0000    0.0041    13    14    15     1
    15   -0.0233    0.0000   -0.1572    0.0156   -8.4375    0.0000    0.0041    14    15    16     1
    16   -0.0078    0.0000   -0.1588    0.0156   -2.8125    0.0000    0.0041    15    16    17     1
    17    0.0078    0.0000   -0.1588    0.0156    2.8125    0.0000    0.0041    16    17    18     1
    18    0.0233    0.0000   -0.1572    0.0156    8.4375    0.0000    0.0041    17    18    19     1
    19    0.0386    0.0000   -0.1542    0.0156   14.0625    0.0000    0.0041    18    19    20     1
    20    0.0536    0.0000   -0.1497    0.0156   19.6875    0.0000    0.0041    19    20    21     1
    21    0.0680    0.0000   -0.1437    0.0156   25.3125    0.0000    0.0041    20    21    22     1
    22    0.0817    0.0000   -0.1363    0.0156   30.9375    0.0000    0.0041    21    22    23     1
    23    0.0947    0.0000   -0.1277    0.0156   36.5625    0.0000    0.0041    22    23    24     1
    24    0.1068    0.0000   -0.1178    0.0156   42.1875    0.0000    0.0041    23    24    25     1
    25    0.1178    0.0000   -0.1068    0.0156   47.8125    0.0000    0.0041    24    25    26     1
    26    0.1277    0.0000   -0.0947    0.0156   53.4375    0.0000    0.0041    25    26    27     1
    27    0.1363    0.0000   -0.0817    0.0156   59.0625    0.0000    0.0041    26    27    28     1
    28    0.1437    0.0000   -0.0680    0.0156   64.6875    0.0000    0.0041    27    28    29     1
    29    0.1497    0.0000   -0.0536    0.0156   70.3125    0.0000    0.0041    28    29    30     1
    30    0.1542    0.0000   -0.0386    0.0156   75.9375    0.0000    0.0041    29    30    31     1
    31    0.1572    0.0000   -0.0233    0.0156   81.5625    0.0000    0.0041    30    31    32     1
    32    0.1588    0.0000   -0.0078    0.0156   87.1875    0.0000    0.0041    31    32    33     1
    33    0.1588    0.0000    0.0078    0.0156   87.1875  180.0000    0.0041    32    33    34     1
    34    0.1572    0.0000    0.0233    0.0156   81.5625  180.0000    0.0041    33    34    35     1
    35    0.1542    0.0000    0.0386    0.0156   75.9375  180.0000    0.0041    34    35    36     1
    36    0.1497    0.0000    0.0536    0.0156   70.3125  180.0000    0.0041    35    36    37     1
    37    0.1437    0.0000    0.0680    0.0156   64.6875  180.0000    0.0041    36    37    38     1
    38    0.1363    0.0000    0.0817    0.0156   59.0625  180.0000    0.0041    37    38    39     1
    39    0.1277    0.0000    0.0947    0.0156   53.4375  180.0000    0.0041    38    39    40     1
    40    0.1178    0.0000    0.1068    0.0156   47.8125  180.0000    0.0041    39    40    41     1
    41    0.1068    0.0000    0.1178    0.0156   42.1875  180.0000    0.0041    40    41    42     1
    42    0.0947    0.0000    0.1277    0.0156   36.5625  180.0000    0.0041    41    42    43     1
    43    0.0817    0.0000    0.1363    0.0156   30.9375  180.0000    0.0041    42    43    44     1
    44    0.0680    0.0000    0.1437    0.0156   25.3125  180.0000    0.0041    43    44    45     1
    45    0.0536    0.0000    0.1497    0.0156   19.6875  180.0000    0.0041    44    45    46     1
    46    0.0386    0.0000    0.1542    0.0156   14.0625  180.0000    0.0041    45    46    47     1
    47    0.0233    0.0000    0.1572    0.0156    8.4375  180.0000    0.0041    46    47    48     1
    48    0.0078    0.0000    0.1588    0.0156    2.8125  180.0000    0.0041    47    48    49     1
    49   -0.0078    0.0000    0.1588    0.0156   -2.8125  180.0000    0.0041    48    49    50     1
    50   -0.0233    0.0000    0.1572    0.0156   -8.4375  180.0000    0.0041    49    50    51     1
    51   -0.0386    0.0000    0.1542    0.0156  -14.0625  180.0000    0.0041    50    51    52     1
    52   -0.0536    0.0000    0.1497    0.0156  -19.6875  180.0000    0.0041    51    52    53     1
    53   -0.0680    0.0000    0.1437    0.0156  -25.3125  180.0000    0.0041    52    53    54     1
    54   -0.0817    0.0000    0.1363    0.0156  -30.9375  180.0000    0.0041    53    54    55     1
    55   -0.0947    0.0000    0.1277    0.0156  -36.5625  180.0000    0.0041    54    55    56     1
    56   -0.1068    0.0000    0.1178    0.0156  -42.1875  180.0000    0.0041    55    56    57     1
    57   -0.1178    0.0000    0.1068    0.0156  -47.8125  180.0000    0.0041    56    57    58     1
    58   -0.1277    0.0000    0.0947    0.0156  -53.4375  180.0000    0.0041    57    58    59     1
    59   -0.1363    0.0000    0.0817    0.0156  -59.0625  180.0000    0.0041    58    59    60     1
    60   -0.1437    0.0000    0.0680    0.0156  -64.6875  180.0000    0.0041    59    60    61     1
    61   -0.1497    0.0000    0.0536    0.0156  -70.3125  180.0000    0.0041    60    61    62     1
    62   -0.1542    0.0000    0.0386    0.0156  -75.9375  180.0000    0.0041    61    62    63     1
    63   -0.1572    0.0000    0.0233    0.0156  -81.5625  180.0000    0.0041    62    63    64     1
    64   -0.1588    0.0000    0.0078    0.0156  -87.1875  180.0000    0.0041    63    64     1     1
    65   -0.1746   -1.0000   -0.0086    0.0172  -87.1875    0.0000    0.0041   128    65    66     2
    66   -0.1730   -1.0000   -0.0257    0.0172  -81.5625    0.0000    0.0041    65    66    67     2
    67   -0.1696   -1.0000   -0.0425    0.0172  -75.9375    0.0000    0.0041    66    67    68     2
    68   -0.1646   -1.0000   -0.0589    0.0172  -70.3125    0.0000    0.0041    67    68    69     2
    69   -0.1581   -1.0000   -0.0748    0.0172  -64.6875    0.0000    0.0041    68    69    70     2
    70   -0.1500   -1.0000   -0.0899    0.0172  -59.0625    0.0000    0.0041    69    70    71     2
    71   -0.1404   -1.0000   -0.1042    0.0172  -53.4375    0.0000    0.0041    70    71    72     2
    72   -0.1296   -1.0000   -0.1174    0.0172  -47.8125    0.0000    0.0041    71    72    73     2
    73   -0.1174   -1.0000   -0.1296    0.0172  -42.1875    0.0000    0.0041    72    73    74     2
    74   -0.1042   -1.0000   -0.1404    0.0172  -36.5625    0.0000    0.0041    73    74    75     2
    75   -0.0899   -1.0000   -0.1500    0.0172  -30.9375    0.0000    0.0041    74    75    76     2
    76   -0.0748   -1.0000   -0.1581    0.0172  -25.3125    0.0000    0.0041    75    76    77     2
    77   -0.0589   -1.0000   -0.1646    0.0172  -19.6875    0.0000    0.0041    76    77    78     2
    78   -0.0425   -1.0000   -0.1696    0.0172  -14.0625    0.0000    0.0041    77    78    79     2
    79   -0.0257   -1.0000   -0.1730    0.0172   -8.4375    0.0000    0.0041    78    79    80     2
    80   -0.0086   -1.0000   -0.1746    0.0172   -2.8125    0.0000    0.0041    79    80    81     2
    81    0.0086   -1.0000   -0.1746    0.0172    2.8125    0.0000    0.0041    80    81    82     2
    82    0.0257   -1.0000   -0.1730    0.0172    8.4375    0.0000    0.0041    81    82    83     2
    83    0.0425   -1.0000   -0.1696    0.0172   14.0625    0.0000    0.0041    82    83    84     2
    84    0.0589   -1.0000   -0.1646    0.0172   19.6875    0.0000    0.0041    83    84    85     2
    85    0.0748   -1.0000   -0.1581    0.0172   25.3125    0.0000    0.0041    84    85    86     2
    86    0.0899   -1.0000   -0.1500    0.0172   30.9375    0.0000    0.0041    85    86    87     2
    87    0.1042   -1.0000   -0.1404    0.0172   36.5625    0.0000    0.0041    86    87    88     2
    88    0.1174   -1.0000   -0.1296    0.0172   42.1875    0.0000    0.0041    87    88    89     2
    89    0.1296   -1.0000   -0.1174    0.0172   47.8125    0.0000    0.0041    88    89    90     2
    90    0.1404   -1.0000   -0.1042    0.0172   53.4375    0.0000    0.0041    89    90    91     2
    91    0.1500   -1.0000   -0.0899    0.0172   59.0625    0.0000    0.0041    90    91    92     2
    92    0.1581   -1.0000   -0.0748    0.0172   64.6875    0.0000    0.0041    91    92    93     2
    93    0.1646   -1.0000   -0.0589    0.0172   70.3125    0.0000    0.0041    92    93    94     2
    94    0.1696   -1.0000   -0.0425    0.0172   75.9375    0.0000    0.0041    93    94    95     2
    95    0.1730   -1.0000   -0.0257    0.0172   81.5625    0.0000    0.0041    94    95    96     2
    96    0.1746   -1.0000   -0.0086    0.0172   87.1875    0.0000    0.0041    95    96    97     2
    97    0.1746   -1.0000    0.0086    0.0172   87.1875  180.0000    0.0041    96    97    98     2
    98    0.1730   -1.0000    0.0257    0.0172   81.5625  180.0000    0.0041    97    98    99     2
    99    0.1696   -1.0000    0.0425    0.0172   75.9375  180.0000    0.0041    98    99   100     2
   100    0.1646   -1.0000    0.0589    0.0172   70.3125  180.0000    0.0041    99   100   101     2
   101    0.1581   -1.0000    0.0748    0.0172   64.6875  180.0000    0.0041   100   101   102     2
   102    0.1500   -1.0000    0.0899    0.0172   59.0625  180.0000    0.0041   101   102   103     2
   103    0.1404   -1.0000    0.1042    0.0172   53.4375  180.0000    0.0041   102   103   104     2
   104    0.1296   -1.0000    0.1174    0.0172   47.8125  180.0000    0.0041   103   104   105     2
   105    0.1174   -1.0000    0.1296    0.0172   42.1875  180.0000    0.0041   104   105   106     2
   106    0.1042   -1.0000    0.1404    0.0172   36.5625  180.0000    0.0041   105   106   107     2
   107    0.0899   -1.0000    0.1500    0.0172   30.9375  180.0000    0.0041   106   107   108     2
   108    0.0748   -1.0000    0.1581    0.0172   25.3125  180.0000    0.0041   107   108   109     2
   109    0.0589   -1.0000    0.1646    0.0172   19.6875  180.0000    0.0041   108   109   110     2
   110    0.0425   -1.0000    0.1696    0.0172   14.0625  180.0000    0.0041   109   110   111     2
   111    0.0257   -1.0000    0.1730    0.0172    8.4375  180.0000    0.0041   110   111   112     2
   112    0.0086   -1.0000    0.1746    0.0172    2.8125  180.0000    0.0041   111   112   113     2
   113   -0.0086   -1.0000    0.1746    0.0172   -2.8125  180.0000    0.0041   112   113   114     2
   114   -0.0257   -1.0000    0.1730    0.0172   -8.4375  180.0000    0.0041   113   114   115     2
   115   -0.0425   -1.0000    0.1696    0.0172  -14.0625  180.0000    0.0041   114   115   116     2
   116   -0.0589   -1.0000    0.1646    0.0172  -19.6875  180.0000    0.0041   115   116   117     2
   117   -0.0748   -1.0000    0.1581    0.0172  -25.3125  180.0000    0.0041   116   117   118     2
   118   -0.0899   -1.0000    0.1500    0.0172  -30.9375  180.0000    0.0041   117   118   119     2
   119   -0.1042   -1.0000    0.1404    0.0172  -36.5625  180.0000    0.0041   118   119   120     2
   120   -0.1174   -1.0000    0.1296    0.0172  -42.1875  180.0000    0.0041   119   120   121     2
   121   -0.1296   -1.0000    0.1174    0.0172  -47.8125  180.0000    0.0041   120   121   122     2
   122   -0.1404   -1.0000    0.1042    0.0172  -53.4375  180.0000    0.0041   121   122   123     2
   123   -0.1500   -1.0000    0.0899    0.0172  -59.0625  180.0000    0.0041   122   123   124     2
   124   -0.1581   -1.0000    0.0748    0.0172  -64.6875  180.0000    0.0041   123   124   125     2
   125   -0.1646   -1.0000    0.0589    0.0172  -70.3125  180.0000    0.0041   124   125   126     2
   126   -0.1696   -1.0000    0.0425    0.0172  -75.9375  180.0000    0.0041   125   126   127     2
   127   -0.1730   -1.0000    0.0257    0.0172  -81.5625  180.0000    0.0041   126   127   128     2
   128   -0.1746   -1.0000    0.0086    0.0172  -87.1875  180.0000    0.0041   127   128    65     2



  DATA CARD No:   1 EK   1     0     0     0  0.00000E+00  0.00000E+00  0.00000E+00  0.00000E+00  0.00000E+00  0.00000E+00
  DATA CARD No:   2 EX   0     1    16     0  1.00000E+00  0.00000E+00  0.00000E+00  0.00000E+00  0.00000E+00  0.00000E+00
  DATA CARD No:   3 FR   0     1     0     0  2.98000E+02  0.00000E+00  0.00000E+00  0.00000E+00  0.00000E+00  0.00000E+00
  DATA CARD No:   4 RP   0    37    73     0  0.00000E+00  0.00000E+00  5.00000E+00  5.00000E+00  0.00000E+00  0.00000E+00


                               --------- FREQUENCY --------
                                FREQUENCY : 2.9800E+02 MHz
                                WAVELENGTH: 1.0060E+00 Mtr

                        APPROXIMATE INTEGRATION EMPLOYED FOR SEGMENTS 
                        THAT ARE MORE THAN 1.000 WAVELENGTHS APART
                        THE EXTENDED THIN WIRE KERNEL WILL BE USED


                          ------ STRUCTURE IMPEDANCE LOADING ------
                                 THIS STRUCTURE IS NOT LOADED


                            -------- ANTENNA ENVIRONMENT --------
                            FREE SPACE


                             ---------- MATRIX TIMING ----------
                               FILL: 0 msec  FACTOR: 0 msec


                        --------- ANTENNA INPUT PARAMETERS ---------
  TAG   SEG       VOLTAGE (VOLTS)         CURRENT (AMPS)         IMPEDANCE (OHMS)        ADMITTANCE (MHOS)     POWER
  No:   No:     REAL      IMAGINARY     REAL      IMAGINARY     REAL      IMAGINARY    REAL       IMAGINARY   (WATTS)
    1    16  1.0000E+00  0.0000E+00  4.4586E-03  4.3330E-03  1.1535E+02 -1.1210E+02  4.4586E-03  4.3330E-03  2.2293E-03


                           -------- CURRENTS AND LOCATION --------
                                  DISTANCES IN WAVELENGTHS

   SEG  TAG    COORDINATES OF SEGM CENTER     SEGM    ------------- CURRENT (AMPS) -------------
   No:  No:       X         Y         Z      LENGTH     REAL      IMAGINARY    MAGN        PHASE
     1    1   -0.1578    0.0000   -0.0078   0.01552  4.8718E-04 -7.9806E-04  9.3501E-04  -58.598
     2    1   -0.1563    0.0000   -0.0232   0.01552  9.1348E-04 -4.9783E-04  1.0403E-03  -28.590
     3    1   -0.1533    0.0000   -0.0384   0.01552  1.3318E-03 -1.8929E-04  1.3452E-03   -8.090
     4    1   -0.1488    0.0000   -0.0532   0.01552  1.7381E-03  1.2612E-04  1.7426E-03    4.150
     5    1   -0.1428    0.0000   -0.0676   0.01552  2.1284E-03  4.4695E-04  2.1748E-03   11.860
     6    1   -0.1355    0.0000   -0.0812   0.01552  2.4989E-03  7.7174E-04  2.6153E-03   17.162
     7    1   -0.1269    0.0000   -0.0941   0.01552  2.8460E-03  1.0991E-03  3.0509E-03   21.115
     8    1   -0.1171    0.0000   -0.1061   0.01552  3.1665E-03  1.4276E-03  3.4734E-03   24.269
     9    1   -0.1061    0.0000   -0.1171   0.01552  3.4570E-03  1.7562E-03  3.8775E-03   26.932
    10    1   -0.0941    0.0000   -0.1269   0.01552  3.7148E-03  2.0841E-03  4.2595E-03   29.294
    11    1   -0.0812    0.0000   -0.1355   0.01552  3.9374E-03  2.4110E-03  4.6169E-03   31.481
    12    1   -0.0676    0.0000   -0.1428   0.01552  4.1226E-03  2.7378E-03  4.9488E-03   33.588
    13    1   -0.0532    0.0000   -0.1488   0.01552  4.2685E-03  3.0676E-03  5.2565E-03   35.704
    14    1   -0.0384    0.0000   -0.1533   0.01552  4.3738E-03  3.4077E-03  5.5446E-03   37.923
    15    1   -0.0232    0.0000   -0.1563   0.01552  4.4374E-03  3.8055E-03  5.8457E-03   40.617
    16    1   -0.0078    0.0000   -0.1578   0.01552  4.4586E-03  4.3330E-03  6.2172E-03   44.181
    17    1    0.0078    0.0000   -0.1578   0.01552  4.4374E-03  3.8055E-03  5.8457E-03   40.617
    18    1    0.0232    0.0000   -0.1563   0.01552  4.3738E-03  3.4077E-03  5.5446E-03   37.923
    19    1    0.0384    0.0000   -0.1533   0.01552  4.2685E-03  3.0676E-03  5.2565E-03   35.704
    20    1    0.0532    0.0000   -0.1488   0.01552  4.1226E-03  2.7378E-03  4.9488E-03   33.588
    21    1    0.0676    0.0000   -0.1428   0.01552  3.9374E-03  2.4110E-03  4.6169E-03   31.481
    22    1    0.0812    0.0000   -0.1355   0.01552  3.7148E-03  2.0841E-03  4.2595E-03   29.294
    23    1    0.0941    0.0000   -0.1269   0.01552  3.4570E-03  1.7562E-03  3.8775E-03   26.932
    24    1    0.1061    0.0000   -0.1171   0.01552  3.1665E-03  1.4276E-03  3.4734E-03   24.269
    25    1    0.1171    0.0000   -0.1061   0.01552  2.8460E-03  1.0991E-03  3.0509E-03   21.115
    26    1    0.1269    0.0000   -0.0941   0.01552  2.4989E-03  7.7174E-04  2.6153E-03   17.162
    27    1    0.1355    0.0000   -0.0812   0.01552  2.1284E-03  4.4695E-04  2.1748E-03   11.860
    28    1    0.1428    0.0000   -0.0676   0.01552  1.7381E-03  1.2612E-04  1.7426E-03    4.150
    29    1    0.1488    0.0000   -0.0532   0.01552  1.3318E-03 -1.8929E-04  1.3452E-03   -8.090
    30    1    0.1533    0.0000   -0.0384   0.01552  9.1348E-04 -4.9783E-04  1.0403E-03  -28.590
    31    1    0.1563    0.0000   -0.0232   0.01552  4.8718E-04 -7.9806E-04  9.3501E-04  -58.598
    32    1    0.1578    0.0000   -0.0078   0.01552  5.6993E-05 -1.0886E-03  1.0901E-03  -87.003
    33    1    0.1578    0.0000    0.0078   0.01552 -3.7292E-04 -1.3681E-03  1.4181E-03 -105.247
    34    1    0.1563    0.0000    0.0232   0.01552 -7.9844E-04 -1.6354E-03  1.8199E-03 -116.022
    35    1    0.1533    0.0000    0.0384   0.01552 -1.2155E-03 -1.8893E-03  2.2465E-03 -122.755
    36    1    0.1488    0.0000    0.0532   0.01552 -1.6200E-03 -2.1286E-03  2.6749E-03 -127.274
    37    1    0.1428    0.0000    0.0676   0.01552 -2.0082E-03 -2.3524E-03  3.0930E-03 -130.487
    38    1    0.1355    0.0000    0.0812   0.01552 -2.3763E-03 -2.5597E-03  3.4927E-03 -132.872
    39    1    0.1269    0.0000    0.0941   0.01552 -2.7209E-03 -2.7497E-03  3.8684E-03 -134.698
    40    1    0.1171    0.0000    0.1061   0.01552 -3.0386E-03 -2.9217E-03  4.2154E-03 -136.123
    41    1    0.1061    0.0000    0.1171   0.01552 -3.3264E-03 -3.0750E-03  4.5300E-03 -137.249
    42    1    0.0941    0.0000    0.1269   0.01552 -3.5816E-03 -3.2091E-03  4.8090E-03 -138.141
    43    1    0.0812    0.0000    0.1355   0.01552 -3.8018E-03 -3.3233E-03  5.0496E-03 -138.842
    44    1    0.0676    0.0000    0.1428   0.01552 -3.9849E-03 -3.4173E-03  5.2495E-03 -139.385
    45    1    0.0532    0.0000    0.1488   0.01552 -4.1291E-03 -3.4908E-03  5.4069E-03 -139.789
    46    1    0.0384    0.0000    0.1533   0.01552 -4.2331E-03 -3.5434E-03  5.5204E-03 -140.068
    47    1    0.0232    0.0000    0.1563   0.01552 -4.2959E-03 -3.5751E-03  5.5889E-03 -140.232
    48    1    0.0078    0.0000    0.1578   0.01552 -4.3169E-03 -3.5857E-03  5.6118E-03 -140.286
    49    1   -0.0078    0.0000    0.1578   0.01552 -4.2959E-03 -3.5751E-03  5.5889E-03 -140.232
    50    1   -0.0232    0.0000    0.1563   0.01552 -4.2331E-03 -3.5434E-03  5.5204E-03 -140.068
    51    1   -0.0384    0.0000    0.1533   0.01552 -4.1291E-03 -3.4908E-03  5.4069E-03 -139.789
    52    1   -0.0532    0.0000    0.1488   0.01552 -3.9849E-03 -3.4173E-03  5.2495E-03 -139.385
    53    1   -0.0676    0.0000    0.1428   0.01552 -3.8018E-03 -3.3233E-03  5.0496E-03 -138.842
    54    1   -0.0812    0.0000    0.1355   0.01552 -3.5816E-03 -3.2091E-03  4.8090E-03 -138.141
    55    1   -0.0941    0.0000    0.1269   0.01552 -3.3264E-03 -3.0750E-03  4.5300E-03 -137.249
    56    1   -0.1061    0.0000    0.1171   0.01552 -3.0386E-03 -2.9217E-03  4.2154E-03 -136.123
    57    1   -0.1171    0.0000    0.1061   0.01552 -2.7209E-03 -2.7497E-03  3.8684E-03 -134.698
    58    1   -0.1269    0.0000    0.0941   0.01552 -2.3763E-03 -2.5597E-03  3.4927E-03 -132.872
    59    1   -0.1355    0.0000    0.0812   0.01552 -2.0082E-03 -2.3524E-03  3.0930E-03 -130.487
    60    1   -0.1428    0.0000    0.0676   0.01552 -1.6200E-03 -2.1286E-03  2.6749E-03 -127.274
    61    1   -0.1488    0.0000    0.0532   0.01552 -1.2155E-03 -1.8893E-03  2.2465E-03 -122.755
    62    1   -0.1533    0.0000    0.0384   0.01552 -7.9844E-04 -1.6354E-03  1.8199E-03 -116.022
    63    1   -0.1563    0.0000    0.0232   0.01552 -3.7292E-04 -1.3681E-03  1.4181E-03 -105.247
    64    1   -0.1578    0.0000    0.0078   0.01552  5.6993E-05 -1.0886E-03  1.0901E-03  -87.003
    65    2   -0.1736   -0.9940   -0.0085   0.01708  3.9934E-05 -1.7416E-04  1.7868E-04  -77.086
    66    2   -0.1719   -0.9940   -0.0255   0.01708  8.4347E-05 -3.4614E-04  3.5627E-04  -76.305
    67    2   -0.1686   -0.9940   -0.0422   0.01708  1.2786E-04 -5.1477E-04  5.3041E-04  -76.051
    68    2   -0.1636   -0.9940   -0.0586   0.01708  1.7005E-04 -6.7841E-04  6.9940E-04  -75.928
    69    2   -0.1571   -0.9940   -0.0743   0.01708  2.1053E-04 -8.3550E-04  8.6161E-04  -75.857
    70    2   -0.1491   -0.9940   -0.0894   0.01708  2.4890E-04 -9.8452E-04  1.0155E-03  -75.812
    71    2   -0.1396   -0.9940   -0.1035   0.01708  2.8480E-04 -1.1240E-03  1.1596E-03  -75.782
    72    2   -0.1288   -0.9940   -0.1167   0.01708  3.1789E-04 -1.2527E-03  1.2925E-03  -75.761
    73    2   -0.1167   -0.9940   -0.1288   0.01708  3.4786E-04 -1.3694E-03  1.4129E-03  -75.747
    74    2   -0.1035   -0.9940   -0.1396   0.01708  3.7443E-04 -1.4728E-03  1.5197E-03  -75.736
    75    2   -0.0894   -0.9940   -0.1491   0.01708  3.9735E-04 -1.5621E-03  1.6118E-03  -75.728
    76    2   -0.0743   -0.9940   -0.1571   0.01708  4.1640E-04 -1.6363E-03  1.6885E-03  -75.723
    77    2   -0.0586   -0.9940   -0.1636   0.01708  4.3141E-04 -1.6948E-03  1.7488E-03  -75.719
    78    2   -0.0422   -0.9940   -0.1686   0.01708  4.4222E-04 -1.7370E-03  1.7924E-03  -75.716
    79    2   -0.0255   -0.9940   -0.1719   0.01708  4.4876E-04 -1.7624E-03  1.8187E-03  -75.715
    80    2   -0.0085   -0.9940   -0.1736   0.01708  4.5094E-04 -1.7710E-03  1.8275E-03  -75.714
    81    2    0.0085   -0.9940   -0.1736   0.01708  4.4876E-04 -1.7624E-03  1.8187E-03  -75.715
    82    2    0.0255   -0.9940   -0.1719   0.01708  4.4222E-04 -1.7370E-03  1.7924E-03  -75.716
    83    2    0.0422   -0.9940   -0.1686   0.01708  4.3141E-04 -1.6948E-03  1.7488E-03  -75.719
    84    2    0.0586   -0.9940   -0.1636   0.01708  4.1640E-04 -1.6363E-03  1.6885E-03  -75.723
    85    2    0.0743   -0.9940   -0.1571   0.01708  3.9735E-04 -1.5621E-03  1.6118E-03  -75.728
    86    2    0.0894   -0.9940   -0.1491   0.01708  3.7443E-04 -1.4728E-03  1.5197E-03  -75.736
    87    2    0.1035   -0.9940   -0.1396   0.01708  3.4786E-04 -1.3694E-03  1.4129E-03  -75.747
    88    2    0.1167   -0.9940   -0.1288   0.01708  3.1789E-04 -1.2527E-03  1.2925E-03  -75.761
    89    2    0.1288   -0.9940   -0.1167   0.01708  2.8480E-04 -1.1240E-03  1.1596E-03  -75.782
    90    2    0.1396   -0.9940   -0.1035   0.01708  2.4890E-04 -9.8452E-04  1.0155E-03  -75.812
    91    2    0.1491   -0.9940   -0.0894   0.01708  2.1053E-04 -8.3550E-04  8.6161E-04  -75.857
    92    2    0.1571   -0.9940   -0.0743   0.01708  1.7005E-04 -6.7841E-04  6.9940E-04  -75.928
    93    2    0.1636   -0.9940   -0.0586   0.01708  1.2786E-04 -5.1477E-04  5.3041E-04  -76.051
    94    2    0.1686   -0.9940   -0.0422   0.01708  8.4347E-05 -3.4614E-04  3.5627E-04  -76.305
    95    2    0.1719   -0.9940   -0.0255   0.01708  3.9934E-05 -1.7416E-04  1.7868E-04  -77.086
    96    2    0.1736   -0.9940   -0.0085   0.01708 -4.9548E-06 -4.7400E-07  4.9774E-06 -174.535
    97    2    0.1736   -0.9940    0.0085   0.01708 -4.9887E-05  1.7325E-04  1.8029E-04  106.064
    98    2    0.1719   -0.9940    0.0255   0.01708 -9.4428E-05  3.4532E-04  3.5800E-04  105.294
    99    2    0.1686   -0.9940    0.0422   0.01708 -1.3815E-04  5.1410E-04  5.3234E-04  105.041
   100    2    0.1636   -0.9940    0.0586   0.01708 -1.8062E-04  6.7796E-04  7.0160E-04  104.918
   101    2    0.1571   -0.9940    0.0743   0.01708 -2.2144E-04  8.3530E-04  8.6415E-04  104.848
   102    2    0.1491   -0.9940    0.0894   0.01708 -2.6020E-04  9.8462E-04  1.0184E-03  104.803
   103    2    0.1396   -0.9940    0.1035   0.01708 -2.9652E-04  1.1245E-03  1.1629E-03  104.773
   104    2    0.1288   -0.9940    0.1167   0.01708 -3.3006E-04  1.2535E-03  1.2962E-03  104.752
   105    2    0.1167   -0.9940    0.1288   0.01708 -3.6047E-04  1.3705E-03  1.4171E-03  104.737
   106    2    0.1035   -0.9940    0.1396   0.01708 -3.8746E-04  1.4742E-03  1.5243E-03  104.726
   107    2    0.0894   -0.9940    0.1491   0.01708 -4.1077E-04  1.5638E-03  1.6168E-03  104.718
   108    2    0.0743   -0.9940    0.1571   0.01708 -4.3016E-04  1.6383E-03  1.6938E-03  104.712
   109    2    0.0586   -0.9940    0.1636   0.01708 -4.4544E-04  1.6970E-03  1.7544E-03  104.708
   110    2    0.0422   -0.9940    0.1686   0.01708 -4.5647E-04  1.7393E-03  1.7982E-03  104.705
   111    2    0.0255   -0.9940    0.1719   0.01708 -4.6313E-04  1.7649E-03  1.8246E-03  104.704
   112    2    0.0085   -0.9940    0.1736   0.01708 -4.6536E-04  1.7734E-03  1.8335E-03  104.703
   113    2   -0.0085   -0.9940    0.1736   0.01708 -4.6313E-04  1.7649E-03  1.8246E-03  104.704
   114    2   -0.0255   -0.9940    0.1719   0.01708 -4.5647E-04  1.7393E-03  1.7982E-03  104.705
   115    2   -0.0422   -0.9940    0.1686   0.01708 -4.4544E-04  1.6970E-03  1.7544E-03  104.708
   116    2   -0.0586   -0.9940    0.1636   0.01708 -4.3016E-04  1.6383E-03  1.6938E-03  104.712
   117    2   -0.0743   -0.9940    0.1571   0.01708 -4.1077E-04  1.5638E-03  1.6168E-03  104.718
   118    2   -0.0894   -0.9940    0.1491   0.01708 -3.8746E-04  1.4742E-03  1.5243E-03  104.726
   119    2   -0.1035   -0.9940    0.1396   0.01708 -3.6047E-04  1.3705E-03  1.4171E-03  104.737
   120    2   -0.1167   -0.9940    0.1288   0.01708 -3.3006E-04  1.2535E-03  1.2962E-03  104.752
   121    2   -0.1288   -0.9940    0.1167   0.01708 -2.9652E-04  1.1245E-03  1.1629E-03  104.773
   122    2   -0.1396   -0.9940    0.1035   0.01708 -2.6020E-04  9.8462E-04  1.0184E-03  104.803
   123    2   -0.1491   -0.9940    0.0894   0.01708 -2.2144E-04  8.3530E-04  8.6415E-04  104.848
   124    2   -0.1571   -0.9940    0.0743   0.01708 -1.8062E-04  6.7796E-04  7.0160E-04  104.918
   125    2   -0.1636   -0.9940    0.0586   0.01708 -1.3815E-04  5.1410E-04  5.3234E-04  105.041
   126    2   -0.1686   -0.9940    0.0422   0.01708 -9.4428E-05  3.4532E-04  3.5800E-04  105.294
   127    2   -0.1719   -0.9940    0.0255   0.01708 -4.9887E-05  1.7325E-04  1.8029E-04  106.064
   128    2   -0.1736   -0.9940    0.0085   0.01708 -4.9548E-06 -4.7400E-07  4.9774E-06 -174.535


                               ---------- POWER BUDGET ---------
                               INPUT POWER   =  2.2293E-03 Watts
                               RADIATED POWER=  2.2293E-03 Watts
                               STRUCTURE LOSS=  0.0000E+00 Watts
                               NETWORK LOSS  =  0.0000E+00 Watts
                               EFFICIENCY    =  100.00 Percent


                             ---------- RADIATION PATTERNS -----------

 ---- ANGLES -----     ----- POWER GAINS -----       ---- POLARIZATION ----   ---- E(THETA) ----    ----- E(PHI) ------
  THETA      PHI       MAJOR    MINOR    TOTAL       AXIAL      TILT  SENSE   MAGNITUDE    PHASE    MAGNITUDE     PHASE
 DEGREES   DEGREES        DB       DB       DB       RATIO   DEGREES            VOLTS/M   DEGREES     VOLTS/M   DEGREES
    0.00      0.00     -2.30  -999.99    -2.30      0.0000      0.00 LINEAR  2.8048E-01    -71.19  0.0000E+00      0.00
    5.00      0.00     -2.30  -999.99    -2.30      0.0000      0.00 LINEAR  2.8066E-01    -71.19  0.0000E+00      0.00
   10.00      0.00     -2.38  -999.99    -2.38      0.0000      0.00 LINEAR  2.7793E-01    -71.12  0.0000E+00      0.00
   15.00      0.00     -2.56  -999.99    -2.56      0.0000      0.00 LINEAR  2.7232E-01    -70.96  0.0000E+00      0.00
   20.00      0.00     -2.83  -999.99    -2.83      0.0000      0.00 LINEAR  2.6388E-01    -70.72  0.0000E+00      0.00
   25.00      0.00     -3.21  -999.99    -3.21      0.0000      0.00 LINEAR  2.5272E-01    -70.39  0.0000E+00      0.00
   30.00      0.00     -3.69  -999.99    -3.69      0.0000      0.00 LINEAR  2.3896E-01    -69.95  0.0000E+00      0.00
   35.00      0.00     -4.30  -999.99    -4.30      0.0000      0.00 LINEAR  2.2274E-01    -69.40  0.0000E+00      0.00
   40.00      0.00     -5.06  -999.99    -5.06      0.0000      0.00 LINEAR  2.0425E-01    -68.71  0.0000E+00      0.00
   45.00      0.00     -5.98  -999.99    -5.98      0.0000      0.00 LINEAR  1.8369E-01    -67.82  0.0000E+00      0.00
   50.00      0.00     -7.11  -999.99    -7.11      0.0000      0.00 LINEAR  1.6131E-01    -66.69  0.0000E+00      0.00
   55.00      0.00     -8.50  -999.99    -8.50      0.0000      0.00 LINEAR  1.3738E-01    -65.16  0.0000E+00      0.00
   60.00      0.00    -10.26  -999.99   -10.26      0.0000      0.00 LINEAR  1.1219E-01    -62.98  0.0000E+00      0.00
   65.00      0.00    -12.56  -999.99   -12.56      0.0000      0.00 LINEAR  8.6130E-02    -59.55  0.0000E+00      0.00
   70.00      0.00    -15.73  -999.99   -15.73      0.0000      0.00 LINEAR  5.9775E-02    -53.20  0.0000E+00      0.00
   75.00      0.00    -20.47  -999.99   -20.47      0.0000      0.00 LINEAR  3.4644E-02    -37.44  0.0000E+00      0.00
   80.00      0.00    -25.36  -999.99   -25.36      0.0000      0.00 LINEAR  1.9731E-02     17.35  0.0000E+00      0.00
   85.00      0.00    -20.59  -999.99   -20.59      0.0000      0.00 LINEAR  3.4178E-02     73.20  0.0000E+00      0.00
   90.00      0.00    -15.81  -999.99   -15.81      0.0000      0.00 LINEAR  5.9203E-02     89.28  0.0000E+00      0.00
   95.00      0.00    -12.62  -999.99   -12.62      0.0000     -0.00 LINEAR  8.5522E-02     95.68  0.0000E+00      0.00
  100.00      0.00    -10.30  -999.99   -10.30      0.0000     -0.00 LINEAR  1.1163E-01     99.08  0.0000E+00      0.00
  105.00      0.00     -8.52  -999.99    -8.52      0.0000     -0.00 LINEAR  1.3703E-01    101.20  0.0000E+00      0.00
  110.00      0.00     -7.10  -999.99    -7.10      0.0000     -0.00 LINEAR  1.6143E-01    102.66  0.0000E+00      0.00
  115.00      0.00     -5.93  -999.99    -5.93      0.0000     -0.00 LINEAR  1.8463E-01    103.72  0.0000E+00      0.00
  120.00      0.00     -4.96  -999.99    -4.96      0.0000     -0.00 LINEAR  2.0650E-01    104.51  0.0000E+00      0.00
  125.00      0.00     -4.14  -999.99    -4.14      0.0000     -0.00 LINEAR  2.2690E-01    105.12  0.0000E+00      0.00
  130.00      0.00     -3.45  -999.99    -3.45      0.0000     -0.00 LINEAR  2.4577E-01    105.60  0.0000E+00      0.00
  135.00      0.00     -2.86  -999.99    -2.86      0.0000     -0.00 LINEAR  2.6303E-01    105.97  0.0000E+00      0.00
  140.00      0.00     -2.36  -999.99    -2.36      0.0000     -0.00 LINEAR  2.7863E-01    106.26  0.0000E+00      0.00
  145.00      0.00     -1.94  -999.99    -1.94      0.0000     -0.00 LINEAR  2.9254E-01    106.49  0.0000E+00      0.00
  150.00      0.00     -1.58  -999.99    -1.58      0.0000     -0.00 LINEAR  3.0474E-01    106.66  0.0000E+00      0.00
  155.00      0.00     -1.29  -999.99    -1.29      0.0000     -0.00 LINEAR  3.1523E-01    106.79  0.0000E+00      0.00
  160.00      0.00     -1.05  -999.99    -1.05      0.0000     -0.00 LINEAR  3.2398E-01    106.89  0.0000E+00      0.00
  165.00      0.00     -0.86  -999.99    -0.86      0.0000     -0.00 LINEAR  3.3101E-01    106.96  0.0000E+00      0.00
  170.00      0.00     -0.73  -999.99    -0.73      0.0000     -0.00 LINEAR  3.3630E-01    107.01  0.0000E+00      0.00
  175.00      0.00     -0.63  -999.99    -0.63      0.0000     -0.00 LINEAR  3.3987E-01    107.04  0.0000E+00      0.00
  180.00      0.00     -0.59  -999.99    -0.59      0.0000     -0.00 LINEAR  3.4170E-01    107.05  0.0000E+00      0.00
    0.00      5.00     -2.30  -180.86    -2.30      0.0000     -5.00 LINEAR  2.7941E-01    -71.19  2.4445E-02    108.81
    5.00      5.00     -2.46   -90.26    -2.46      0.0000     -5.01 LEFT    2.7442E-01    -71.09  2.4048E-02    108.89
   10.00      5.00     -2.71   -73.82    -2.71      0.0003     -5.10 LEFT    2.6668E-01    -70.85  2.3819E-02    108.97
   15.00      5.00     -3.04   -65.60    -3.04      0.0007     -5.29 LEFT    2.5639E-01    -70.46  2.3747E-02    109.07
   20.00      5.00     -3.48   -59.94    -3.48      0.0015     -5.58 LEFT    2.4377E-01    -69.92  2.3818E-02    109.19
   25.00      5.00     -4.01   -55.55    -4.01      0.0026     -5.98 LEFT    2.2904E-01    -69.22  2.4015E-02    109.32
   30.00      5.00     -4.66   -51.90    -4.66      0.0043     -6.53 LEFT    2.1245E-01    -68.32  2.4320E-02    109.48
   35.00      5.00     -5.42   -48.71    -5.42      0.0068     -7.24 LEFT    1.9425E-01    -67.21  2.4713E-02    109.66
   40.00      5.00     -6.33   -45.82    -6.33      0.0106     -8.18 LEFT    1.7468E-01    -65.84  2.5174E-02    109.85
   45.00      5.00     -7.39   -43.12    -7.39      0.0164     -9.42 LEFT    1.5399E-01    -64.14  2.5682E-02    110.07
   50.00      5.00     -8.66   -40.49    -8.65      0.0256    -11.11 LEFT    1.3243E-01    -61.99  2.6219E-02    110.29
   55.00      5.00    -10.17   -37.87   -10.16      0.0412    -13.45 LEFT    1.1027E-01    -59.14  2.6767E-02    110.52
   60.00      5.00    -12.01   -35.13   -11.99      0.0698    -16.86 LEFT    8.7817E-02    -55.08  2.7309E-02    110.74
   65.00      5.00    -14.28   -32.17   -14.21      0.1275    -22.08 LEFT    6.5529E-02    -48.65  2.7829E-02    110.94
   70.00      5.00    -17.11   -28.83   -16.83      0.2594    -30.58 LEFT    4.4393E-02    -36.48  2.8315E-02    111.11
   75.00      5.00    -20.51   -25.13   -19.22      0.5877    -47.00 LEFT    2.7797E-02     -7.82  2.8755E-02    111.24
   80.00      5.00    -20.90   -24.60   -19.36      0.6536     51.95 LEFT    2.6457E-02     44.36  2.9141E-02    111.32
   85.00      5.00    -17.49   -28.07   -17.12      0.2958     33.41 LEFT    4.1530E-02     76.15  2.9466E-02    111.35
   90.00      5.00    -14.66   -31.13   -14.56      0.1500     24.69 LEFT    6.1604E-02     89.30  2.9725E-02    111.32
   95.00      5.00    -12.41   -33.81   -12.38      0.0851     19.38 LEFT    8.2701E-02     95.91  2.9918E-02    111.22
  100.00      5.00    -10.60   -36.24   -10.59      0.0522     15.90 LEFT    1.0378E-01     99.83  3.0044E-02    111.07
  105.00      5.00     -9.12   -38.56    -9.11      0.0337     13.47 LEFT    1.2447E-01    102.39  3.0106E-02    110.87
  110.00      5.00     -7.88   -40.84    -7.87      0.0225     11.70 LEFT    1.4459E-01    104.15  3.0110E-02    110.61
  115.00      5.00     -6.82   -43.18    -6.82      0.0152     10.35 LEFT    1.6403E-01    105.40  3.0061E-02    110.32
  120.00      5.00     -5.91   -45.61    -5.91      0.0104      9.29 LEFT    1.8275E-01    106.27  2.9969E-02    109.99
  125.00      5.00     -5.11   -48.18    -5.11      0.0070      8.45 LEFT    2.0071E-01    106.87  2.9842E-02    109.64
  130.00      5.00     -4.42   -50.95    -4.42      0.0047      7.75 LEFT    2.1789E-01    107.26  2.9691E-02    109.28
  135.00      5.00     -3.80   -53.95    -3.80      0.0031      7.18 LEFT    2.3430E-01    107.49  2.9528E-02    108.93
  140.00      5.00     -3.24   -57.24    -3.24      0.0020      6.70 LEFT    2.4993E-01    107.60  2.9366E-02    108.59
  145.00      5.00     -2.75   -60.88    -2.75      0.0012      6.30 LEFT    2.6474E-01    107.62  2.9219E-02    108.27
  150.00      5.00     -2.31   -64.93    -2.31      0.0007      5.96 LEFT    2.7872E-01    107.57  2.9099E-02    107.98
  155.00      5.00     -1.92   -69.49    -1.92      0.0004      5.68 LEFT    2.9181E-01    107.48  2.9022E-02    107.72
  160.00      5.00     -1.57   -74.72    -1.57      0.0002      5.45 LEFT    3.0393E-01    107.38  2.9002E-02    107.51
  165.00      5.00     -1.26   -80.90    -1.26      0.0001      5.27 LEFT    3.1498E-01    107.27  2.9056E-02    107.33
  170.00      5.00     -0.99   -88.67    -0.99      0.0000      5.14 LEFT    3.2484E-01    107.17  2.9195E-02    107.20
  175.00      5.00     -0.77  -100.08    -0.77      0.0000      5.05 LEFT    3.3337E-01    107.10  2.9433E-02    107.11
  180.00      5.00     -0.59  -999.99    -0.59      0.0000      5.00 LINEAR  3.4040E-01    107.05  2.9781E-02    107.05
    0.00     10.00     -2.30  -999.99    -2.30      0.0000    -10.00 LINEAR  2.7621E-01    -71.19  4.8704E-02    108.81
    5.00     10.00     -2.62   -84.48    -2.62      0.0001    -10.02 LEFT    2.6627E-01    -70.93  4.7023E-02    109.05
   10.00     10.00     -3.03   -67.89    -3.03      0.0006    -10.20 LEFT    2.5386E-01    -70.35  4.5696E-02    109.46
   15.00     10.00     -3.53   -59.56    -3.53      0.0016    -10.58 LEFT    2.3944E-01    -69.43  4.4705E-02    110.07
   20.00     10.00     -4.11   -53.77    -4.11      0.0033    -11.15 LEFT    2.2344E-01    -68.14  4.4032E-02    110.87
   25.00     10.00     -4.78   -49.22    -4.78      0.0060    -11.94 LEFT    2.0627E-01    -66.44  4.3655E-02    111.86
   30.00     10.00     -5.54   -45.37    -5.54      0.0102    -13.01 LEFT    1.8830E-01    -64.32  4.3551E-02    113.02
   35.00     10.00     -6.38   -41.97    -6.38      0.0166    -14.40 LEFT    1.6985E-01    -61.73  4.3696E-02    114.32
   40.00     10.00     -7.32   -38.85    -7.32      0.0265    -16.19 LEFT    1.5115E-01    -58.62  4.4065E-02    115.72
   45.00     10.00     -8.36   -35.93    -8.35      0.0418    -18.50 LEFT    1.3240E-01    -54.89  4.4630E-02    117.17
   50.00     10.00     -9.52   -33.13    -9.50      0.0660    -21.47 LEFT    1.1375E-01    -50.37  4.5357E-02    118.62
   55.00     10.00    -10.80   -30.43   -10.76      0.1044    -25.35 LEFT    9.5371E-02    -44.72  4.6206E-02    120.01
   60.00     10.00    -12.23   -27.78   -12.11      0.1669    -30.45 LEFT    7.7514E-02    -37.25  4.7135E-02    121.30
   65.00     10.00    -13.78   -25.19   -13.48      0.2690    -37.32 LEFT    6.0741E-02    -26.55  4.8097E-02    122.42
   70.00     10.00    -15.42   -22.70   -14.67      0.4323    -47.32 LEFT    4.6397E-02     -9.79  4.9042E-02    123.36
   75.00     10.00    -16.90   -20.56   -15.34      0.6559    -67.00 LEFT    3.7577E-02     16.73  4.9926E-02    124.08
   80.00     10.00    -16.86   -20.13   -15.19      0.6865     69.40 LEFT    3.8430E-02     48.79  5.0708E-02    124.56
   85.00     10.00    -15.19   -21.54   -14.29      0.4815     47.70 LEFT    4.8423E-02     73.25  5.1357E-02    124.79
   90.00     10.00    -13.44   -23.23   -13.01      0.3241     38.01 LEFT    6.3212E-02     88.02  5.1854E-02    124.76
   95.00     10.00    -11.87   -24.95   -11.66      0.2218     31.83 LEFT    7.9933E-02     96.97  5.2191E-02    124.47
  100.00     10.00    -10.50   -26.70   -10.39      0.1547     27.36 LEFT    9.7286E-02    102.71  5.2376E-02    123.93
  105.00     10.00     -9.30   -28.51    -9.25      0.1095     23.97 LEFT    1.1465E-01    106.52  5.2429E-02    123.15
  110.00     10.00     -8.26   -30.40    -8.23      0.0781     21.31 LEFT    1.3171E-01    109.08  5.2379E-02    122.15
  115.00     10.00     -7.34   -32.43    -7.33      0.0557     19.19 LEFT    1.4829E-01    110.75  5.2265E-02    120.95
  120.00     10.00     -6.54   -34.63    -6.53      0.0394     17.47 LEFT    1.6435E-01    111.75  5.2129E-02    119.59
  125.00     10.00     -5.81   -37.05    -5.81      0.0274     16.06 LEFT    1.7989E-01    112.22  5.2013E-02    118.12
  130.00     10.00     -5.16   -39.74    -5.16      0.0187     14.88 LEFT    1.9500E-01    112.27  5.1955E-02    116.58
  135.00     10.00     -4.57   -42.74    -4.57      0.0123     13.90 LEFT    2.0981E-01    112.00  5.1988E-02    115.03
  140.00     10.00     -4.01   -46.13    -4.01      0.0078     13.07 LEFT    2.2444E-01    111.49  5.2139E-02    113.53
  145.00     10.00     -3.49   -49.99    -3.49      0.0047     12.37 LEFT    2.3902E-01    110.82  5.2427E-02    112.12
  150.00     10.00     -2.99   -54.39    -2.99      0.0027     11.77 LEFT    2.5363E-01    110.07  5.2866E-02    110.84
  155.00     10.00     -2.52   -59.48    -2.52      0.0014     11.27 LEFT    2.6828E-01    109.31  5.3468E-02    109.73
  160.00     10.00     -2.07   -65.42    -2.07      0.0007     10.85 LEFT    2.8289E-01    108.60  5.4243E-02    108.81
  165.00     10.00     -1.65   -72.50    -1.65      0.0003     10.52 LEFT    2.9730E-01    107.99  5.5203E-02    108.08
  170.00     10.00     -1.26   -81.29    -1.26      0.0001     10.26 LEFT    3.1127E-01    107.52  5.6362E-02    107.55
  175.00     10.00     -0.90   -93.63    -0.90      0.0000     10.09 LEFT    3.2446E-01    107.20  5.7735E-02    107.21
  180.00     10.00     -0.59  -174.84    -0.59      0.0000     10.00 LINEAR  3.3651E-01    107.05  5.9336E-02    107.05
    0.00     15.00     -2.30  -999.99    -2.30      0.0000    -15.00 LINEAR  2.7092E-01    -71.19  7.2592E-02    108.81
    5.00     15.00     -2.78   -81.37    -2.78      0.0001    -15.02 LEFT    2.5638E-01    -70.71  6.8794E-02    109.26
   10.00     15.00     -3.35   -64.54    -3.35      0.0009    -15.30 LEFT    2.3987E-01    -69.61  6.5602E-02    110.19
   15.00     15.00     -3.99   -56.04    -3.99      0.0025    -15.84 LEFT    2.2224E-01    -67.81  6.3049E-02    111.64
   20.00     15.00     -4.68   -50.05    -4.68      0.0054    -16.67 LEFT    2.0427E-01    -65.26  6.1172E-02    113.62
   25.00     15.00     -5.41   -45.28    -5.41      0.0102    -17.81 LEFT    1.8665E-01    -61.92  6.0010E-02    116.08
   30.00     15.00     -6.15   -41.21    -6.15      0.0177    -19.31 LEFT    1.6988E-01    -57.83  5.9596E-02    118.93
   35.00     15.00     -6.89   -37.62    -6.89      0.0291    -21.19 LEFT    1.5423E-01    -53.04  5.9943E-02    122.02
   40.00     15.00     -7.61   -34.39    -7.60      0.0458    -23.49 LEFT    1.3970E-01    -47.66  6.1027E-02    125.19
   45.00     15.00     -8.31   -31.45    -8.29      0.0696    -26.26 LEFT    1.2608E-01    -41.76  6.2781E-02    128.25
   50.00     15.00     -9.00   -28.76    -8.95      0.1028    -29.59 LEFT    1.1300E-01    -35.35  6.5090E-02    131.06
   55.00     15.00     -9.70   -26.29    -9.61      0.1481    -33.59 LEFT    1.0014E-01    -28.29  6.7801E-02    133.51
   60.00     15.00    -10.44   -24.01   -10.25      0.2095    -38.47 LEFT    8.7278E-02    -20.21  7.0735E-02    135.57
   65.00     15.00    -11.20   -21.92   -10.85      0.2910    -44.60 LEFT    7.4572E-02    -10.33  7.3704E-02    137.22
   70.00     15.00    -11.98   -20.04   -11.35      0.3953    -52.79 LEFT    6.2746E-02      2.68  7.6526E-02    138.47
   75.00     15.00    -12.69   -18.46   -11.67      0.5145    -64.86 LEFT    5.3497E-02     20.55  7.9035E-02    139.35
   80.00     15.00    -13.05   -17.44   -11.70      0.6034    -83.90 LEFT    4.9589E-02     43.54  8.1092E-02    139.89
   85.00     15.00    -12.69   -17.37   -11.41      0.5834     73.60 LEFT    5.3196E-02     67.14  8.2595E-02    140.11
   90.00     15.00    -11.75   -18.09   -10.85      0.4822     57.71 LEFT    6.3479E-02     85.73  8.3479E-02    140.02
   95.00     15.00    -10.67   -19.20   -10.10      0.3747     47.79 LEFT    7.7800E-02     98.42  8.3721E-02    139.64
  100.00     15.00     -9.62   -20.50    -9.28      0.2857     40.96 LEFT    9.3969E-02    106.80  8.3345E-02    138.95
  105.00     15.00     -8.66   -21.96    -8.47      0.2164     35.84 LEFT    1.1062E-01    112.37  8.2415E-02    137.93
  110.00     15.00     -7.82   -23.56    -7.70      0.1632     31.82 LEFT    1.2694E-01    116.05  8.1038E-02    136.57
  115.00     15.00     -7.08   -25.33    -7.01      0.1223     28.58 LEFT    1.4245E-01    118.39  7.9356E-02    134.86
  120.00     15.00     -6.43   -27.29    -6.40      0.0906     25.93 LEFT    1.5693E-01    119.70  7.7536E-02    132.77
  125.00     15.00     -5.87   -29.50    -5.85      0.0659     23.75 LEFT    1.7036E-01    120.16  7.5764E-02    130.33
  130.00     15.00     -5.36   -32.00    -5.35      0.0466     21.96 LEFT    1.8291E-01    119.91  7.4222E-02    127.58
  135.00     15.00     -4.90   -34.86    -4.89      0.0317     20.48 LEFT    1.9493E-01    119.06  7.3075E-02    124.60
  140.00     15.00     -4.45   -38.18    -4.44      0.0206     19.27 LEFT    2.0685E-01    117.73  7.2454E-02    121.51
  145.00     15.00     -3.99   -42.04    -3.99      0.0125     18.28 LEFT    2.1918E-01    116.06  7.2441E-02    118.47
  150.00     15.00     -3.53   -46.58    -3.53      0.0070     17.45 LEFT    2.3234E-01    114.20  7.3069E-02    115.61
  155.00     15.00     -3.04   -51.96    -3.04      0.0036     16.77 LEFT    2.4663E-01    112.33  7.4327E-02    113.08
  160.00     15.00     -2.54   -58.40    -2.54      0.0016     16.20 LEFT    2.6216E-01    110.61  7.6175E-02    110.95
  165.00     15.00     -2.02   -66.24    -2.02      0.0006     15.74 LEFT    2.7874E-01    109.15  7.8558E-02    109.29
  170.00     15.00     -1.52   -76.07    -1.52      0.0002     15.38 LEFT    2.9600E-01    108.05  8.1426E-02    108.10
  175.00     15.00     -1.03   -89.57    -1.03      0.0000     15.13 LEFT    3.1334E-01    107.35  8.4731E-02    107.36
  180.00     15.00     -0.59  -999.99    -0.59      0.0000     15.00 LINEAR  3.3006E-01    107.05  8.8439E-02    107.05
    0.00     20.00     -2.30  -999.99    -2.30      0.0000    -20.00 LINEAR  2.6356E-01    -71.19  9.5928E-02    108.81
    5.00     20.00     -2.94   -79.49    -2.94      0.0001    -20.02 LEFT    2.4494E-01    -70.45  8.9260E-02    109.53
   10.00     20.00     -3.65   -62.29    -3.65      0.0012    -20.37 LEFT    2.2510E-01    -68.64  8.3593E-02    111.15
   15.00     20.00     -4.40   -53.58    -4.40      0.0035    -21.07 LEFT    2.0548E-01    -65.62  7.9147E-02    113.79
   20.00     20.00     -5.14   -47.37    -5.14      0.0077    -22.11 LEFT    1.8744E-01    -61.33  7.6171E-02    117.40
   25.00     20.00     -5.80   -42.40    -5.79      0.0148    -23.52 LEFT    1.7201E-01    -55.90  7.4900E-02    121.79
   30.00     20.00     -6.32   -38.22    -6.32      0.0254    -25.28 LEFT    1.5966E-01    -49.64  7.5493E-02    126.59
   35.00     20.00     -6.70   -34.63    -6.69      0.0401    -27.38 LEFT    1.5012E-01    -43.03  7.7955E-02    131.34
   40.00     20.00     -6.95   -31.52    -6.94      0.0591    -29.84 LEFT    1.4249E-01    -36.52  8.2115E-02    135.65
   45.00     20.00     -7.13   -28.79    -7.10      0.0827    -32.72 LEFT    1.3553E-01    -30.38  8.7652E-02    139.25
   50.00     20.00     -7.29   -26.36    -7.24      0.1112    -36.11 LEFT    1.2802E-01    -24.61  9.4155E-02    142.08
   55.00     20.00     -7.47   -24.20    -7.38      0.1459    -40.15 LEFT    1.1908E-01    -19.01  1.0118E-01    144.17
   60.00     20.00     -7.71   -22.25    -7.56      0.1875    -45.02 LEFT    1.0823E-01    -13.12  1.0831E-01    145.63
   65.00     20.00     -8.00   -20.51    -7.76      0.2368    -50.96 LEFT    9.5522E-02     -6.25  1.1515E-01    146.60
   70.00     20.00     -8.31   -19.00    -7.96      0.2922    -58.29 LEFT    8.1629E-02      2.74  1.2136E-01    147.20
   75.00     20.00     -8.60   -17.76    -8.10      0.3483    -67.37 LEFT    6.8092E-02     15.66  1.2666E-01    147.52
   80.00     20.00     -8.78   -16.88    -8.15      0.3935    -78.41 LEFT    5.7855E-02     34.71  1.3082E-01    147.63
   85.00     20.00     -8.74   -16.44    -8.06      0.4122     89.12 LEFT    5.5129E-02     59.37  1.3367E-01    147.59
   90.00     20.00     -8.45   -16.48    -7.81      0.3968     76.73 LEFT    6.2101E-02     82.81  1.3512E-01    147.43
   95.00     20.00     -7.96   -16.94    -7.44      0.3556     65.88 LEFT    7.6287E-02     99.63  1.3512E-01    147.14
  100.00     20.00     -7.38   -17.73    -7.00      0.3037     57.04 LEFT    9.3927E-02    110.48  1.3370E-01    146.71
  105.00     20.00     -6.79   -18.77    -6.52      0.2518     49.94 LEFT    1.1246E-01    117.49  1.3095E-01    146.11
  110.00     20.00     -6.24   -20.01    -6.06      0.2049     44.19 LEFT    1.3036E-01    122.10  1.2703E-01    145.27
  115.00     20.00     -5.76   -21.44    -5.64      0.1644     39.48 LEFT    1.4675E-01    125.11  1.2218E-01    144.11
  120.00     20.00     -5.36   -23.08    -5.29      0.1300     35.59 LEFT    1.6112E-01    126.93  1.1668E-01    142.55
  125.00     20.00     -5.04   -24.96    -4.99      0.1009     32.34 LEFT    1.7330E-01    127.76  1.1090E-01    140.47
  130.00     20.00     -4.78   -27.14    -4.75      0.0762     29.65 LEFT    1.8344E-01    127.70  1.0526E-01    137.81
  135.00     20.00     -4.56   -29.69    -4.55      0.0554     27.44 LEFT    1.9199E-01    126.77  1.0020E-01    134.51
  140.00     20.00     -4.35   -32.72    -4.35      0.0382     25.64 LEFT    1.9974E-01    125.02  9.6163E-02    130.62
  145.00     20.00     -4.11   -36.36    -4.11      0.0244     24.21 LEFT    2.0770E-01    122.57  9.3526E-02    126.30
  150.00     20.00     -3.81   -40.77    -3.81      0.0142     23.09 LEFT    2.1696E-01    119.60  9.2535E-02    121.85
  155.00     20.00     -3.41   -46.17    -3.41      0.0073     22.20 LEFT    2.2848E-01    116.41  9.3267E-02    117.61
  160.00     20.00     -2.93   -52.82    -2.93      0.0032     21.50 LEFT    2.4281E-01    113.36  9.5633E-02    113.89
  165.00     20.00     -2.37   -61.15    -2.37      0.0012     20.93 LEFT    2.5998E-01    110.74  9.9427E-02    110.94
  170.00     20.00     -1.77   -71.82    -1.77      0.0003     20.49 LEFT    2.7943E-01    108.77  1.0439E-01    108.83
  175.00     20.00     -1.16   -86.48    -1.16      0.0001     20.17 LEFT    3.0021E-01    107.55  1.1028E-01    107.56
  180.00     20.00     -0.59  -999.99    -0.59      0.0000     20.00 LINEAR  3.2110E-01    107.05  1.1687E-01    107.05
    0.00     25.00     -2.30  -999.99    -2.30      0.0000    -25.00 LINEAR  2.5420E-01    -71.19  1.1853E-01    108.81
    5.00     25.00     -3.09   -78.40    -3.09      0.0002    -25.02 LEFT    2.3213E-01    -70.14  1.0835E-01    109.84
   10.00     25.00     -3.94   -60.72    -3.94      0.0014    -25.43 LEFT    2.0985E-01    -67.44  9.9795E-02    112.34
   15.00     25.00     -4.75   -51.75    -4.75      0.0045    -26.25 LEFT    1.8968E-01    -62.89  9.3522E-02    116.46
   20.00     25.00     -5.43   -45.34    -5.43      0.0101    -27.45 LEFT    1.7371E-01    -56.58  9.0239E-02    122.01
   25.00     25.00     -5.84   -40.27    -5.84      0.0190    -29.00 LEFT    1.6316E-01    -49.10  9.0497E-02    128.33
   30.00     25.00     -5.97   -36.14    -5.97      0.0310    -30.87 LEFT    1.5780E-01    -41.45  9.4439E-02    134.52
   35.00     25.00     -5.87   -32.72    -5.86      0.0455    -33.06 LEFT    1.5596E-01    -34.53  1.0170E-01    139.78
   40.00     25.00     -5.65   -29.82    -5.63      0.0618    -35.62 LEFT    1.5529E-01    -28.78  1.1156E-01    143.75
   45.00     25.00     -5.40   -27.32    -5.38      0.0802    -38.64 LEFT    1.5358E-01    -24.18  1.2316E-01    146.42
   50.00     25.00     -5.21   -25.12    -5.17      0.1010    -42.21 LEFT    1.4926E-01    -20.38  1.3567E-01    148.03
   55.00     25.00     -5.09   -23.18    -5.03      0.1246    -46.42 LEFT    1.4143E-01    -16.94  1.4838E-01    148.84
   60.00     25.00     -5.06   -21.47    -4.96      0.1511    -51.34 LEFT    1.2985E-01    -13.31  1.6066E-01    149.10
   65.00     25.00     -5.09   -20.00    -4.95      0.1797    -57.07 LEFT    1.1484E-01     -8.84  1.7200E-01    149.02
   70.00     25.00     -5.15   -18.75    -4.97      0.2089    -63.66 LEFT    9.7281E-02     -2.47  1.8200E-01    148.74
   75.00     25.00     -5.22   -17.77    -4.98      0.2358    -71.12 LEFT    7.8805E-02      7.58  1.9032E-01    148.39
   80.00     25.00     -5.24   -17.06    -4.97      0.2564    -79.33 LEFT    6.2529E-02     24.49  1.9672E-01    148.04
   85.00     25.00     -5.19   -16.66    -4.89      0.2671    -88.00 LEFT    5.4146E-02     50.82  2.0102E-01    147.73
   90.00     25.00     -5.05   -16.56    -4.75      0.2659     83.28 LEFT    5.9039E-02     79.61  2.0310E-01    147.50
   95.00     25.00     -4.83   -16.74    -4.56      0.2537     74.95 LEFT    7.4837E-02    100.11  2.0292E-01    147.35
  100.00     25.00     -4.56   -17.19    -4.33      0.2335     67.32 LEFT    9.5523E-02    112.48  2.0049E-01    147.25
  105.00     25.00     -4.28   -17.87    -4.09      0.2090     60.52 LEFT    1.1724E-01    120.15  1.9588E-01    147.18
  110.00     25.00     -4.01   -18.76    -3.87      0.1831     54.56 LEFT    1.3794E-01    125.21  1.8926E-01    147.06
  115.00     25.00     -3.79   -19.84    -3.69      0.1576     49.36 LEFT    1.5641E-01    128.70  1.8086E-01    146.80
  120.00     25.00     -3.64   -21.14    -3.57      0.1334     44.84 LEFT    1.7191E-01    131.09  1.7100E-01    146.29
  125.00     25.00     -3.57   -22.67    -3.51      0.1109     40.93 LEFT    1.8403E-01    132.57  1.6014E-01    145.36
  130.00     25.00     -3.57   -24.47    -3.53      0.0901     37.55 LEFT    1.9273E-01    133.18  1.4883E-01    143.82
  135.00     25.00     -3.62   -26.64    -3.60      0.0707     34.67 LEFT    1.9838E-01    132.85  1.3777E-01    141.48
  140.00     25.00     -3.71   -29.27    -3.70      0.0527     32.26 LEFT    2.0183E-01    131.46  1.2776E-01    138.14
  145.00     25.00     -3.77   -32.52    -3.77      0.0365     30.30 LEFT    2.0446E-01    128.97  1.1968E-01    133.77
  150.00     25.00     -3.75   -36.60    -3.75      0.0228     28.77 LEFT    2.0809E-01    125.43  1.1434E-01    128.52
  155.00     25.00     -3.58   -41.79    -3.58      0.0123     27.61 LEFT    2.1463E-01    121.16  1.1230E-01    122.88
  160.00     25.00     -3.21   -48.42    -3.21      0.0055     26.75 LEFT    2.2558E-01    116.71  1.1371E-01    117.49
  165.00     25.00     -2.67   -56.97    -2.67      0.0019     26.09 LEFT    2.4152E-01    112.71  1.1826E-01    112.99
  170.00     25.00     -2.00   -68.24    -2.00      0.0005     25.58 LEFT    2.6190E-01    109.66  1.2534E-01    109.73
  175.00     25.00     -1.29   -83.94    -1.29      0.0001     25.21 LEFT    2.8526E-01    107.77  1.3427E-01    107.79
  180.00     25.00     -0.59  -999.99    -0.59      0.0000     25.00 LINEAR  3.0969E-01    107.05  1.4441E-01    107.05
    0.00     30.00     -2.30  -999.99    -2.30      0.0000    -30.00 LINEAR  2.4290E-01    -71.19  1.4024E-01    108.81
    5.00     30.00     -3.23   -77.96    -3.23      0.0002    -30.02 LEFT    2.1814E-01    -69.78  1.2602E-01    110.19
   10.00     30.00     -4.20   -59.62    -4.20      0.0017    -30.47 LEFT    1.9440E-01    -66.05  1.1438E-01    113.73
   15.00     30.00     -5.02   -50.39    -5.02      0.0054    -31.37 LEFT    1.7513E-01    -59.74  1.0677E-01    119.56
   20.00     30.00     -5.51   -43.84    -5.51      0.0121    -32.66 LEFT    1.6320E-01    -51.42  1.0462E-01    127.05
   25.00     30.00     -5.56   -38.81    -5.55      0.0218    -34.27 LEFT    1.5941E-01    -42.57  1.0865E-01    134.75
   30.00     30.00     -5.22   -34.83    -5.22      0.0331    -36.18 LEFT    1.6183E-01    -34.83  1.1844E-01    141.19
   35.00     30.00     -4.69   -31.60    -4.68      0.0451    -38.44 LEFT    1.6696E-01    -29.03  1.3266E-01    145.67
   40.00     30.00     -4.13   -28.89    -4.12      0.0579    -41.13 LEFT    1.7133E-01    -25.07  1.4975E-01    148.25
   45.00     30.00     -3.64   -26.56    -3.62      0.0715    -44.29 LEFT    1.7247E-01    -22.45  1.6831E-01    149.37
   50.00     30.00     -3.26   -24.54    -3.23      0.0863    -47.97 LEFT    1.6899E-01    -20.61  1.8721E-01    149.48
   55.00     30.00     -2.98   -22.79    -2.94      0.1023    -52.19 LEFT    1.6036E-01    -19.00  2.0557E-01    148.95
   60.00     30.00     -2.80   -21.29    -2.74      0.1190    -56.97 LEFT    1.4674E-01    -17.12  2.2269E-01    148.08
   65.00     30.00     -2.69   -20.04    -2.61      0.1357    -62.30 LEFT    1.2878E-01    -14.36  2.3807E-01    147.07
   70.00     30.00     -2.62   -19.02    -2.53      0.1514    -68.14 LEFT    1.0757E-01     -9.78  2.5130E-01    146.06
   75.00     30.00     -2.57   -18.24    -2.46      0.1647    -74.42 LEFT    8.4813E-02     -1.64  2.6213E-01    145.16
   80.00     30.00     -2.52   -17.69    -2.39      0.1743    -81.01 LEFT    6.3615E-02     13.79  2.7034E-01    144.43
   85.00     30.00     -2.44   -17.37    -2.30      0.1793    -87.76 LEFT    5.0621E-02     42.01  2.7582E-01    143.92
   90.00     30.00     -2.34   -17.27    -2.20      0.1793     85.52 LEFT    5.4488E-02     76.43  2.7848E-01    143.64
   95.00     30.00     -2.21   -17.37    -2.08      0.1747     79.00 LEFT    7.2698E-02     99.70  2.7828E-01    143.60
  100.00     30.00     -2.08   -17.66    -1.96      0.1664     72.80 LEFT    9.6578E-02    112.56  2.7521E-01    143.78
  105.00     30.00     -1.96   -18.12    -1.85      0.1555     67.02 LEFT    1.2136E-01    120.24  2.6929E-01    144.15
  110.00     30.00     -1.86   -18.76    -1.77      0.1429     61.69 LEFT    1.4481E-01    125.39  2.6059E-01    144.64
  115.00     30.00     -1.81   -19.57    -1.74      0.1294     56.81 LEFT    1.6561E-01    129.16  2.4928E-01    145.18
  120.00     30.00     -1.83   -20.57    -1.77      0.1155     52.39 LEFT    1.8285E-01    132.04  2.3562E-01    145.65
  125.00     30.00     -1.92   -21.79    -1.88      0.1016     48.39 LEFT    1.9589E-01    134.21  2.2000E-01    145.89
  130.00     30.00     -2.10   -23.26    -2.07      0.0875     44.80 LEFT    2.0441E-01    135.67  2.0299E-01    145.68
  135.00     30.00     -2.37   -25.06    -2.35      0.0734     41.61 LEFT    2.0850E-01    136.29  1.8538E-01    144.74
  140.00     30.00     -2.71   -27.30    -2.69      0.0590     38.81 LEFT    2.0880E-01    135.85  1.6822E-01    142.75
  145.00     30.00     -3.07   -30.12    -3.06      0.0444     36.44 LEFT    2.0672E-01    134.07  1.5280E-01    139.38
  150.00     30.00     -3.37   -33.78    -3.37      0.0302     34.51 LEFT    2.0443E-01    130.76  1.4065E-01    134.46
  155.00     30.00     -3.50   -38.59    -3.50      0.0176     33.04 LEFT    2.0481E-01    126.02  1.3324E-01    128.22
  160.00     30.00     -3.36   -45.00    -3.36      0.0083     31.98 LEFT    2.1067E-01    120.42  1.3155E-01    121.48
  165.00     30.00     -2.91   -53.58    -2.91      0.0029     31.22 LEFT    2.2370E-01    114.99  1.3558E-01    115.37
  170.00     30.00     -2.22   -65.23    -2.22      0.0007     30.65 LEFT    2.4368E-01    110.69  1.4440E-01    110.78
  175.00     30.00     -1.40   -81.80    -1.40      0.0001     30.24 LEFT    2.6869E-01    108.04  1.5661E-01    108.05
  180.00     30.00     -0.59  -999.99    -0.59      0.0000     30.00 LINEAR  2.9592E-01    107.05  1.7085E-01    107.05
    0.00     35.00     -2.30  -165.81    -2.30      0.0000    -35.00 LINEAR  2.2975E-01    -71.19  1.6087E-01    108.81
    5.00     35.00     -3.37   -78.15    -3.37      0.0002    -35.00 LEFT    2.0311E-01    -69.40  1.4224E-01    110.58
   10.00     35.00     -4.42   -58.93    -4.42      0.0019    -35.49 LEFT    1.7890E-01    -64.49  1.2754E-01    115.28
   15.00     35.00     -5.19   -49.43    -5.19      0.0061    -36.43 LEFT    1.6188E-01    -56.35  1.1946E-01    122.92
   20.00     35.00     -5.39   -42.82    -5.39      0.0135    -37.74 LEFT    1.5537E-01    -46.36  1.2026E-01    132.04
   25.00     35.00     -5.01   -37.90    -5.01      0.0227    -39.35 LEFT    1.5884E-01    -37.13  1.3028E-01    140.23
   30.00     35.00     -4.27   -34.10    -4.26      0.0322    -41.29 LEFT    1.6813E-01    -30.41  1.4770E-01    145.87
   35.00     35.00     -3.44   -31.02    -3.43      0.0418    -43.62 LEFT    1.7825E-01    -26.37  1.6989E-01    148.84
   40.00     35.00     -2.69   -28.45    -2.67      0.0515    -46.38 LEFT    1.8539E-01    -24.33  1.9450E-01    149.76
   45.00     35.00     -2.07   -26.27    -2.05      0.0617    -49.59 LEFT    1.8734E-01    -23.52  2.1974E-01    149.34
   50.00     35.00     -1.59   -24.41    -1.56      0.0722    -53.23 LEFT    1.8315E-01    -23.28  2.4433E-01    148.11
   55.00     35.00     -1.23   -22.85    -1.20      0.0830    -57.31 LEFT    1.7278E-01    -23.12  2.6734E-01    146.46
   60.00     35.00     -0.98   -21.56    -0.94      0.0936    -61.78 LEFT    1.5677E-01    -22.56  2.8813E-01    144.67
   65.00     35.00     -0.80   -20.51    -0.76      0.1034    -66.61 LEFT    1.3609E-01    -21.07  3.0627E-01    142.93
   70.00     35.00     -0.67   -19.70    -0.62      0.1119    -71.73 LEFT    1.1199E-01    -17.81  3.2153E-01    141.35
   75.00     35.00     -0.57   -19.09    -0.51      0.1185    -77.07 LEFT    8.6183E-02    -11.10  3.3376E-01    140.03
   80.00     35.00     -0.48   -18.69    -0.42      0.1229    -82.54 LEFT    6.1582E-02      3.13  3.4295E-01    139.01
   85.00     35.00     -0.40   -18.46    -0.33      0.1249    -88.04 LEFT    4.5223E-02     33.25  3.4908E-01    138.34
   90.00     35.00     -0.31   -18.40    -0.24      0.1246     86.53 LEFT    4.8810E-02     73.54  3.5216E-01    138.03
   95.00     35.00     -0.23   -18.47    -0.16      0.1223     81.24 LEFT    6.9284E-02     98.55  3.5216E-01    138.07
  100.00     35.00     -0.15   -18.68    -0.09      0.1184     76.15 LEFT    9.5447E-02    111.15  3.4903E-01    138.46
  105.00     35.00     -0.10   -19.02    -0.04      0.1132     71.29 LEFT    1.2228E-01    118.49  3.4269E-01    139.17
  110.00     35.00     -0.08   -19.48    -0.03      0.1072     66.70 LEFT    1.4767E-01    123.53  3.3309E-01    140.14
  115.00     35.00     -0.11   -20.08    -0.07      0.1004     62.38 LEFT    1.7036E-01    127.44  3.2019E-01    141.32
  120.00     35.00     -0.22   -20.83    -0.18      0.0932     58.34 LEFT    1.8935E-01    130.71  3.0407E-01    142.58
  125.00     35.00     -0.40   -21.78    -0.37      0.0854     54.57 LEFT    2.0381E-01    133.48  2.8495E-01    143.80
  130.00     35.00     -0.69   -22.96    -0.66      0.0770     51.08 LEFT    2.1313E-01    135.75  2.6329E-01    144.76
  135.00     35.00     -1.08   -24.44    -1.06      0.0679     47.88 LEFT    2.1705E-01    137.36  2.3982E-01    145.17
  140.00     35.00     -1.59   -26.33    -1.57      0.0579     44.98 LEFT    2.1582E-01    138.04  2.1565E-01    144.67
  145.00     35.00     -2.17   -28.77    -2.16      0.0468     42.40 LEFT    2.1055E-01    137.37  1.9235E-01    142.75
  150.00     35.00     -2.75   -31.99    -2.75      0.0345     40.21 LEFT    2.0341E-01    134.93  1.7201E-01    138.94
  155.00     35.00     -3.21   -36.36    -3.21      0.0220     38.46 LEFT    1.9778E-01    130.42  1.5714E-01    133.01
  160.00     35.00     -3.36   -42.42    -3.36      0.0111     37.19 LEFT    1.9775E-01    124.19  1.5008E-01    125.52
  165.00     35.00     -3.08   -50.87    -3.08      0.0041     36.33 LEFT    2.0659E-01    117.46  1.5191E-01    117.95
  170.00     35.00     -2.41   -62.72    -2.41      0.0010     35.71 LEFT    2.2499E-01    111.84  1.6173E-01    111.95
  175.00     35.00     -1.52   -79.98    -1.52      0.0001     35.26 LEFT    2.5069E-01    108.32  1.7725E-01    108.34
  180.00     35.00     -0.59  -999.99    -0.59      0.0000     35.00 LINEAR  2.7991E-01    107.05  1.9599E-01    107.05
    0.00     40.00     -2.30  -999.99    -2.30      0.0000    -40.00 LINEAR  2.1486E-01    -71.19  1.8029E-01    108.81
    5.00     40.00     -3.50   -79.10    -3.50      0.0002    -39.99 LEFT    1.8720E-01    -68.99  1.5700E-01    110.99
   10.00     40.00     -4.62   -58.61    -4.62      0.0020    -40.47 LEFT    1.6346E-01    -62.83  1.3948E-01    116.93
   15.00     40.00     -5.26   -48.86    -5.26      0.0066    -41.42 LEFT    1.4969E-01    -52.90  1.3205E-01    126.34
   20.00     40.00     -5.11   -42.25    -5.11      0.0139    -42.71 LEFT    1.4912E-01    -41.84  1.3764E-01    136.56
   25.00     40.00     -4.32   -37.47    -4.32      0.0220    -44.30 LEFT    1.5912E-01    -33.11  1.5527E-01    144.37
   30.00     40.00     -3.28   -33.80    -3.27      0.0298    -46.24 LEFT    1.7345E-01    -27.97  1.8112E-01    148.62
   35.00     40.00     -2.27   -30.84    -2.26      0.0373    -48.58 LEFT    1.8642E-01    -25.77  2.1127E-01    149.93
   40.00     40.00     -1.41   -28.39    -1.40      0.0448    -51.33 LEFT    1.9447E-01    -25.44  2.4278E-01    149.31
   45.00     40.00     -0.73   -26.35    -0.72      0.0524    -54.46 LEFT    1.9586E-01    -26.11  2.7365E-01    147.55
   50.00     40.00     -0.21   -24.66    -0.20      0.0599    -57.95 LEFT    1.9015E-01    -27.16  3.0253E-01    145.22
   55.00     40.00      0.17   -23.29     0.19      0.0672    -61.76 LEFT    1.7774E-01    -28.13  3.2857E-01    142.67
   60.00     40.00      0.44   -22.19     0.47      0.0738    -65.84 LEFT    1.5957E-01    -28.59  3.5126E-01    140.16
   65.00     40.00      0.64   -21.35     0.67      0.0795    -70.15 LEFT    1.3684E-01    -28.08  3.7040E-01    137.85
   70.00     40.00      0.79   -20.72     0.82      0.0840    -74.63 LEFT    1.1096E-01    -25.84  3.8602E-01    135.84
   75.00     40.00      0.90   -20.29     0.93      0.0872    -79.20 LEFT    8.3547E-02    -20.30  3.9825E-01    134.20
   80.00     40.00      0.99   -20.03     1.02      0.0889    -83.80 LEFT    5.7186E-02     -7.18  4.0732E-01    132.97
   85.00     40.00      1.07   -19.91     1.11      0.0893    -88.37 LEFT    3.8755E-02     24.71  4.1342E-01    132.19
   90.00     40.00      1.15   -19.90     1.18      0.0887     87.13 LEFT    4.2455E-02     71.10  4.1667E-01    131.85
   95.00     40.00      1.21   -19.98     1.25      0.0872     82.74 LEFT    6.4348E-02     96.94  4.1710E-01    131.96
  100.00     40.00      1.27   -20.14     1.30      0.0850     78.50 LEFT    9.1378E-02    108.84  4.1460E-01    132.51
  105.00     40.00      1.30   -20.38     1.33      0.0824     74.42 LEFT    1.1888E-01    115.69  4.0896E-01    133.47
  110.00     40.00      1.29   -20.70     1.32      0.0796     70.50 LEFT    1.4508E-01    120.54  3.9989E-01    134.81
  115.00     40.00      1.23   -21.11     1.25      0.0764     66.75 LEFT    1.6886E-01    124.51  3.8711E-01    136.47
  120.00     40.00      1.10   -21.65     1.12      0.0729     63.16 LEFT    1.8920E-01    128.04  3.7037E-01    138.36
  125.00     40.00      0.88   -22.35     0.90      0.0690     59.75 LEFT    2.0513E-01    131.30  3.4961E-01    140.35
  130.00     40.00      0.55   -23.27     0.56      0.0645     56.52 LEFT    2.1579E-01    134.25  3.2501E-01    142.26
  135.00     40.00      0.09   -24.47     0.10      0.0592     53.48 LEFT    2.2054E-01    136.75  2.9714E-01    143.83
  140.00     40.00     -0.50   -26.05    -0.49      0.0528     50.65 LEFT    2.1923E-01    138.50  2.6704E-01    144.66
  145.00     40.00     -1.22   -28.15    -1.22      0.0451     48.06 LEFT    2.1250E-01    139.04  2.3637E-01    144.23
  150.00     40.00     -2.02   -30.98    -2.02      0.0357     45.76 LEFT    2.0219E-01    137.76  2.0759E-01    141.84
  155.00     40.00     -2.77   -34.92    -2.77      0.0247     43.84 LEFT    1.9173E-01    134.03  1.8410E-01    136.86
  160.00     40.00     -3.24   -40.57    -3.24      0.0136     42.39 LEFT    1.8604E-01    127.74  1.6981E-01    129.31
  165.00     40.00     -3.18   -48.76    -3.18      0.0053     41.41 LEFT    1.9008E-01    120.01  1.6764E-01    120.62
  170.00     40.00     -2.57   -60.67    -2.57      0.0012     40.75 LEFT    2.0594E-01    113.06  1.7747E-01    113.21
  175.00     40.00     -1.62   -78.46    -1.62      0.0001     40.28 LEFT    2.3142E-01    108.63  1.9614E-01    108.65
  180.00     40.00     -0.59  -162.80    -0.59      0.0000     40.00 LINEAR  2.6176E-01    107.05  2.1964E-01    107.05
    0.00     45.00     -2.30  -999.99    -2.30      0.0000    -45.00 LINEAR  1.9833E-01    -71.19  1.9833E-01    108.81
    5.00     45.00     -3.62   -81.15    -3.62      0.0001    -44.97 LEFT    1.7053E-01    -68.57  1.7032E-01    111.42
   10.00     45.00     -4.77   -58.68    -4.77      0.0020    -45.43 LEFT    1.4809E-01    -61.13  1.5035E-01    118.64
   15.00     45.00     -5.24   -48.67    -5.24      0.0067    -46.35 LEFT    1.3813E-01    -49.59  1.4477E-01    129.63
   20.00     45.00     -4.73   -42.10    -4.72      0.0135    -47.58 LEFT    1.4317E-01    -38.10  1.5666E-01    140.35
   25.00     45.00     -3.60   -37.43    -3.59      0.0203    -49.12 LEFT    1.5820E-01    -30.45  1.8273E-01    147.19
   30.00     45.00     -2.35   -33.86    -2.34      0.0266    -51.03 LEFT    1.7558E-01    -27.01  2.1696E-01    149.88
   35.00     45.00     -1.24   -31.00    -1.23      0.0325    -53.31 LEFT    1.8963E-01    -26.47  2.5437E-01    149.65
   40.00     45.00     -0.33   -28.66    -0.33      0.0383    -55.96 LEFT    1.9728E-01    -27.57  2.9163E-01    147.70
   45.00     45.00      0.36   -26.76     0.37      0.0440    -58.92 LEFT    1.9732E-01    -29.45  3.2660E-01    144.85
   50.00     45.00      0.88   -25.24     0.89      0.0494    -62.16 LEFT    1.8981E-01    -31.53  3.5798E-01    141.63
   55.00     45.00      1.26   -24.05     1.27      0.0543    -65.64 LEFT    1.7555E-01    -33.38  3.8507E-01    138.37
   60.00     45.00      1.52   -23.15     1.54      0.0584    -69.30 LEFT    1.5579E-01    -34.65  4.0763E-01    135.30
   65.00     45.00      1.71   -22.50     1.72      0.0616    -73.10 LEFT    1.3195E-01    -34.91  4.2581E-01    132.56
   70.00     45.00      1.83   -22.07     1.85      0.0638    -76.99 LEFT    1.0547E-01    -33.49  4.4001E-01    130.23
   75.00     45.00      1.93   -21.81     1.95      0.0650    -80.90 LEFT    7.7877E-02    -28.93  4.5074E-01    128.37
   80.00     45.00      2.00   -21.69     2.02      0.0653    -84.81 LEFT    5.1316E-02    -16.93  4.5855E-01    127.01
   85.00     45.00      2.07   -21.68     2.09      0.0649    -88.66 LEFT    3.2019E-02     16.42  4.6390E-01    126.15
   90.00     45.00      2.14   -21.74     2.15      0.0640     87.57 LEFT    3.5859E-02     69.17  4.6706E-01    125.81
   95.00     45.00      2.20   -21.85     2.21      0.0628     83.91 LEFT    5.7976E-02     95.12  4.6813E-01    125.97
  100.00     45.00      2.25   -21.98     2.26      0.0614     80.35 LEFT    8.4395E-02    106.15  4.6693E-01    126.62
  105.00     45.00      2.28   -22.14     2.30      0.0601     76.91 LEFT    1.1119E-01    112.47  4.6309E-01    127.76
  110.00     45.00      2.28   -22.33     2.30      0.0588     73.58 LEFT    1.3701E-01    117.08  4.5606E-01    129.36
  115.00     45.00      2.23   -22.57     2.24      0.0575     70.36 LEFT    1.6092E-01    121.04  4.4518E-01    131.37
  120.00     45.00      2.11   -22.90     2.12      0.0562     67.23 LEFT    1.8196E-01    124.75  4.2984E-01    133.73
  125.00     45.00      1.89   -23.37     1.91      0.0546     64.21 LEFT    1.9907E-01    128.37  4.0953E-01    136.33
  130.00     45.00      1.56   -24.03     1.58      0.0525     61.30 LEFT    2.1117E-01    131.87  3.8407E-01    139.00
  135.00     45.00      1.09   -24.96     1.10      0.0498     58.50 LEFT    2.1732E-01    135.11  3.5369E-01    141.50
  140.00     45.00      0.46   -26.26     0.47      0.0461     55.85 LEFT    2.1695E-01    137.79  3.1925E-01    143.47
  145.00     45.00     -0.34   -28.06    -0.33      0.0411     53.36 LEFT    2.1022E-01    139.45  2.8238E-01    144.36
  150.00     45.00     -1.27   -30.56    -1.27      0.0343     51.09 LEFT    1.9848E-01    139.38  2.4576E-01    143.41
  155.00     45.00     -2.25   -34.11    -2.24      0.0255     49.11 LEFT    1.8485E-01    136.73  2.1343E-01    139.68
  160.00     45.00     -3.01   -39.33    -3.01      0.0153     47.54 LEFT    1.7454E-01    130.85  1.9077E-01    132.61
  165.00     45.00     -3.22   -47.19    -3.22      0.0063     46.47 LEFT    1.7386E-01    122.50  1.8303E-01    123.23
  170.00     45.00     -2.71   -59.04    -2.71      0.0015     45.78 LEFT    1.8660E-01    114.32  1.9177E-01    114.50
  175.00     45.00     -1.72   -77.20    -1.72      0.0002     45.30 LEFT    2.1105E-01    108.94  2.1327E-01    108.96
  180.00     45.00     -0.59  -999.99    -0.59      0.0000     45.00 LINEAR  2.4162E-01    107.05  2.4162E-01    107.05
    0.00     50.00     -2.30  -999.99    -2.30      0.0000    -50.00 LINEAR  1.8029E-01    -71.19  2.1486E-01    108.81
    5.00     50.00     -3.73   -85.45    -3.73      0.0001    -49.94 LEFT    1.5322E-01    -68.15  1.8219E-01    111.84
   10.00     50.00     -4.90   -59.19    -4.90      0.0019    -50.37 LEFT    1.3273E-01    -59.45  1.6027E-01    120.33
   15.00     50.00     -5.14   -48.88    -5.14      0.0065    -51.22 LEFT    1.2669E-01    -46.58  1.5765E-01    132.66
   20.00     50.00     -4.28   -42.33    -4.28      0.0125    -52.36 LEFT    1.3634E-01    -35.19  1.7680E-01    143.33
   25.00     50.00     -2.90   -37.74    -2.90      0.0181    -53.83 LEFT    1.5461E-01    -28.89  2.1142E-01    148.93
   30.00     50.00     -1.52   -34.24    -1.52      0.0231    -55.65 LEFT    1.7329E-01    -27.04  2.5341E-01    150.11
   35.00     50.00     -0.36   -31.46    -0.35      0.0279    -57.81 LEFT    1.8713E-01    -27.91  2.9698E-01    148.55
   40.00     50.00      0.56   -29.23     0.56      0.0324    -60.27 LEFT    1.9360E-01    -30.20  3.3853E-01    145.50
   45.00     50.00      1.24   -27.48     1.25      0.0366    -63.00 LEFT    1.9202E-01    -33.06  3.7588E-01    141.76
   50.00     50.00      1.74   -26.12     1.75      0.0405    -65.94 LEFT    1.8284E-01    -35.95  4.0784E-01    137.84
   55.00     50.00      2.08   -25.12     2.09      0.0437    -69.05 LEFT    1.6724E-01    -38.51  4.3397E-01    134.03
   60.00     50.00      2.31   -24.41     2.32      0.0461    -72.28 LEFT    1.4669E-01    -40.39  4.5443E-01    130.55
   65.00     50.00      2.45   -23.95     2.46      0.0478    -75.60 LEFT    1.2273E-01    -41.25  4.6980E-01    127.50
   70.00     50.00      2.54   -23.70     2.55      0.0487    -78.95 LEFT    9.6811E-02    -40.48  4.8095E-01    124.97
   75.00     50.00      2.60   -23.61     2.61      0.0489    -82.30 LEFT    7.0284E-02    -36.76  4.8884E-01    122.98
   80.00     50.00      2.65   -23.64     2.66      0.0485    -85.62 LEFT    4.4851E-02    -25.94  4.9441E-01    121.54
   85.00     50.00      2.69   -23.75     2.70      0.0476    -88.87 LEFT    2.5709E-02      8.16  4.9838E-01    120.66
   90.00     50.00      2.75   -23.89     2.76      0.0466     87.97 LEFT    2.9363E-02     67.55  5.0122E-01    120.31
   95.00     50.00      2.81   -24.04     2.82      0.0455     84.89 LEFT    5.0463E-02     93.31  5.0308E-01    120.50
  100.00     50.00      2.87   -24.16     2.88      0.0445     81.91 LEFT    7.5012E-02    103.47  5.0373E-01    121.22
  105.00     50.00      2.92   -24.26     2.93      0.0437     79.02 LEFT    9.9946E-02    109.27  5.0262E-01    122.46
  110.00     50.00      2.95   -24.33     2.96      0.0432     76.21 LEFT    1.2432E-01    113.62  4.9892E-01    124.22
  115.00     50.00      2.94   -24.40     2.95      0.0430     73.47 LEFT    1.4742E-01    117.50  4.9157E-01    126.47
  120.00     50.00      2.85   -24.52     2.86      0.0428     70.78 LEFT    1.6836E-01    121.31  4.7947E-01    129.16
  125.00     50.00      2.67   -24.75     2.68      0.0426     68.15 LEFT    1.8608E-01    125.18  4.6164E-01    132.21
  130.00     50.00      2.37   -25.16     2.38      0.0420     65.58 LEFT    1.9938E-01    129.09  4.3738E-01    135.48
  135.00     50.00      1.92   -25.83     1.92      0.0410     63.08 LEFT    2.0705E-01    132.92  4.0651E-01    138.73
  140.00     50.00      1.28   -26.86     1.29      0.0391     60.66 LEFT    2.0819E-01    136.38  3.6955E-01    141.62
  145.00     50.00      0.45   -28.38     0.46      0.0361     58.35 LEFT    2.0248E-01    139.01  3.2801E-01    143.64
  150.00     50.00     -0.57   -30.58    -0.56      0.0316     56.19 LEFT    1.9078E-01    140.08  2.8465E-01    143.99
  155.00     50.00     -1.70   -33.79    -1.70      0.0249     54.25 LEFT    1.7569E-01    138.57  2.4396E-01    141.57
  160.00     50.00     -2.72   -38.61    -2.72      0.0160     52.65 LEFT    1.6226E-01    133.43  2.1255E-01    135.33
  165.00     50.00     -3.19   -46.11    -3.19      0.0071     51.51 LEFT    1.5754E-01    124.82  1.9812E-01    125.66
  170.00     50.00     -2.82   -57.81    -2.82      0.0018     50.80 LEFT    1.6698E-01    115.57  2.0472E-01    115.78
  175.00     50.00     -1.80   -76.20    -1.80      0.0002     50.31 LEFT    1.8972E-01    109.26  2.2861E-01    109.28
  180.00     50.00     -0.59  -999.99    -0.59      0.0000     50.00 LINEAR  2.1964E-01    107.05  2.6176E-01    107.05
    0.00     55.00     -2.30  -999.99    -2.30      0.0000    -55.00 LINEAR  1.6087E-01    -71.19  2.2975E-01    108.81
    5.00     55.00     -3.82  -101.38    -3.82      0.0000    -54.90 LEFT    1.3537E-01    -67.75  1.9264E-01    112.25
   10.00     55.00     -4.98   -60.25    -4.98      0.0017    -55.28 LEFT    1.1731E-01    -57.84  1.6928E-01    121.95
   15.00     55.00     -5.00   -49.54    -5.00      0.0059    -56.04 LEFT    1.1485E-01    -43.96  1.7049E-01    135.31
   20.00     55.00     -3.84   -42.97    -3.84      0.0110    -57.07 LEFT    1.2776E-01    -33.06  1.9727E-01    145.56
   25.00     55.00     -2.26   -38.40    -2.26      0.0156    -58.42 LEFT    1.4755E-01    -28.13  2.3999E-01    149.86
   30.00     55.00     -0.81   -34.94    -0.81      0.0196    -60.10 LEFT    1.6615E-01    -27.68  2.8878E-01    149.71
   35.00     55.00      0.37   -32.23     0.38      0.0234    -62.07 LEFT    1.7892E-01    -29.73  3.3723E-01    147.03
[...]
  100.00    340.00     -3.59   -20.28    -3.50      0.1463    -62.36 RIGHT   1.1651E-01    109.21  2.1489E-01    -50.80
  105.00    340.00     -2.97   -21.44    -2.90      0.1192    -55.05 RIGHT   1.5099E-01    114.05  2.1373E-01    -51.51
  110.00    340.00     -2.32   -22.86    -2.28      0.0940    -48.90 RIGHT   1.8511E-01    116.71  2.1169E-01    -52.45
  115.00    340.00     -1.68   -24.52    -1.66      0.0721    -43.73 RIGHT   2.1813E-01    118.13  2.0877E-01    -53.61
  120.00    340.00     -1.09   -26.43    -1.08      0.0541    -39.38 RIGHT   2.4942E-01    118.70  2.0495E-01    -54.99
  125.00    340.00     -0.56   -28.61    -0.56      0.0396    -35.70 RIGHT   2.7840E-01    118.67  2.0025E-01    -56.55
  130.00    340.00     -0.10   -31.08    -0.10      0.0283    -32.58 RIGHT   3.0447E-01    118.16  1.9472E-01    -58.27
  135.00    340.00      0.27   -33.89     0.28      0.0196    -29.94 RIGHT   3.2703E-01    117.29  1.8841E-01    -60.12
  140.00    340.00      0.57   -37.11     0.57      0.0131    -27.70 RIGHT   3.4551E-01    116.13  1.8142E-01    -62.05
  145.00    340.00      0.76   -40.83     0.76      0.0083    -25.81 RIGHT   3.5941E-01    114.77  1.7385E-01    -64.02
  150.00    340.00      0.87   -45.18     0.87      0.0050    -24.24 RIGHT   3.6835E-01    113.27  1.6585E-01    -65.97
  155.00    340.00      0.87   -50.35     0.87      0.0027    -22.95 RIGHT   3.7209E-01    111.73  1.5755E-01    -67.83
  160.00    340.00      0.77   -56.60     0.77      0.0014    -21.92 RIGHT   3.7063E-01    110.24  1.4911E-01    -69.53
  165.00    340.00      0.57   -64.36     0.57      0.0006    -21.12 RIGHT   3.6418E-01    108.91  1.4068E-01    -70.99
  170.00    340.00      0.27   -74.30     0.27      0.0002    -20.55 RIGHT   3.5323E-01    107.85  1.3241E-01    -72.12
  175.00    340.00     -0.12   -87.95    -0.12      0.0000    -20.18 RIGHT   3.3853E-01    107.19  1.2442E-01    -72.81
  180.00    340.00     -0.59  -999.99    -0.59      0.0000    -20.00 LINEAR  3.2110E-01    107.05  1.1687E-01    -72.95
    0.00    345.00     -2.30  -999.99    -2.30      0.0000     15.00 LINEAR  2.7092E-01    -71.19  7.2592E-02    -71.19
    5.00    345.00     -1.83   -81.45    -1.83      0.0001     15.02 RIGHT   2.8617E-01    -71.20  7.6784E-02    -71.22
   10.00    345.00     -1.46   -64.72    -1.46      0.0007     15.28 RIGHT   2.9820E-01    -70.75  8.1491E-02    -70.90
   15.00    345.00     -1.20   -56.37    -1.20      0.0017     15.80 RIGHT   3.0638E-01    -69.90  8.6676E-02    -70.28
   20.00    345.00     -1.06   -50.61    -1.06      0.0033     16.57 RIGHT   3.1023E-01    -68.74  9.2289E-02    -69.44
   25.00    345.00     -1.03   -46.11    -1.03      0.0056     17.61 RIGHT   3.0943E-01    -67.31  9.8260E-02    -68.42
   30.00    345.00     -1.12   -42.37    -1.12      0.0087     18.97 RIGHT   3.0385E-01    -65.68  1.0450E-01    -67.29
   35.00    345.00     -1.33   -39.12    -1.33      0.0129     20.69 RIGHT   2.9348E-01    -63.86  1.1091E-01    -66.09
   40.00    345.00     -1.66   -36.23    -1.65      0.0187     22.83 RIGHT   2.7851E-01    -61.88  1.1737E-01    -64.88
   45.00    345.00     -2.10   -33.59    -2.10      0.0266     25.49 RIGHT   2.5921E-01    -59.75  1.2375E-01    -63.68
   50.00    345.00     -2.66   -31.17    -2.65      0.0376     28.79 RIGHT   2.3598E-01    -57.43  1.2993E-01    -62.53
   55.00    345.00     -3.33   -28.91    -3.32      0.0526     32.90 RIGHT   2.0929E-01    -54.86  1.3578E-01    -61.46
   60.00    345.00     -4.10   -26.81    -4.08      0.0733     38.08 RIGHT   1.7968E-01    -51.86  1.4119E-01    -60.49
   65.00    345.00     -4.95   -24.87    -4.91      0.1010     44.66 RIGHT   1.4778E-01    -48.12  1.4606E-01    -59.65
   70.00    345.00     -5.82   -23.13    -5.74      0.1362     53.04 RIGHT   1.1433E-01    -42.84  1.5031E-01    -58.96
   75.00    345.00     -6.60   -21.70    -6.47      0.1757     63.65 RIGHT   8.0544E-02    -33.91  1.5385E-01    -58.42
   80.00    345.00     -7.13   -20.73    -6.95      0.2091     76.59 RIGHT   4.9608E-02    -13.95  1.5664E-01    -58.05
   85.00    345.00     -7.25   -20.38    -7.04      0.2206    -88.98 RIGHT   3.5102E-02     36.52  1.5864E-01    -57.85
   90.00    345.00     -6.90   -20.72    -6.72      0.2037    -74.92 RIGHT   5.3909E-02     81.95  1.5982E-01    -57.84
   95.00    345.00     -6.18   -21.63    -6.06      0.1689    -62.79 RIGHT   8.6348E-02     98.85  1.6018E-01    -58.00
  100.00    345.00     -5.29   -22.95    -5.21      0.1309    -53.05 RIGHT   1.2135E-01    106.16  1.5970E-01    -58.34
  105.00    345.00     -4.35   -24.54    -4.31      0.0979    -45.39 RIGHT   1.5632E-01    109.96  1.5841E-01    -58.86
  110.00    345.00     -3.46   -26.34    -3.43      0.0717    -39.35 RIGHT   1.9024E-01    112.10  1.5633E-01    -59.54
  115.00    345.00     -2.64   -28.34    -2.62      0.0519    -34.55 RIGHT   2.2246E-01    113.27  1.5351E-01    -60.38
  120.00    345.00     -1.91   -30.53    -1.90      0.0371    -30.68 RIGHT   2.5244E-01    113.81  1.5001E-01    -61.35
  125.00    345.00     -1.28   -32.94    -1.28      0.0261    -27.52 RIGHT   2.7972E-01    113.90  1.4588E-01    -62.45
  130.00    345.00     -0.76   -35.61    -0.76      0.0181    -24.91 RIGHT   3.0385E-01    113.64  1.4123E-01    -63.64
  135.00    345.00     -0.33   -38.59    -0.33      0.0122    -22.76 RIGHT   3.2445E-01    113.13  1.3615E-01    -64.91
  140.00    345.00     -0.01   -41.95    -0.01      0.0080    -20.96 RIGHT   3.4118E-01    112.42  1.3074E-01    -66.21
  145.00    345.00      0.23   -45.77     0.23      0.0050    -19.48 RIGHT   3.5379E-01    111.58  1.2512E-01    -67.50
  150.00    345.00      0.37   -50.16     0.37      0.0030    -18.25 RIGHT   3.6212E-01    110.66  1.1941E-01    -68.76
  155.00    345.00      0.41   -55.30     0.41      0.0016    -17.25 RIGHT   3.6613E-01    109.73  1.1371E-01    -69.94
  160.00    345.00      0.37   -61.40     0.37      0.0008    -16.46 RIGHT   3.6593E-01    108.83  1.0813E-01    -70.99
  165.00    345.00      0.25   -68.79     0.25      0.0004    -15.86 RIGHT   3.6177E-01    108.05  1.0274E-01    -71.87
  170.00    345.00      0.04   -78.04     0.04      0.0001    -15.42 RIGHT   3.5402E-01    107.45  9.7634E-02    -72.52
  175.00    345.00     -0.24   -90.72    -0.24      0.0000    -15.14 RIGHT   3.4324E-01    107.10  9.2851E-02    -72.90
  180.00    345.00     -0.59  -999.99    -0.59      0.0000    -15.00 LINEAR  3.3006E-01    107.05  8.8439E-02    -72.95
    0.00    350.00     -2.30  -171.83    -2.30      0.0000     10.00 LINEAR  2.7621E-01    -71.19  4.8704E-02    -71.19
    5.00    350.00     -1.98   -84.53    -1.98      0.0001     10.01 RIGHT   2.8668E-01    -71.24  5.0627E-02    -71.27
   10.00    350.00     -1.75   -68.00    -1.75      0.0005     10.20 RIGHT   2.9406E-01    -71.04  5.2903E-02    -71.20
   15.00    350.00     -1.63   -59.75    -1.63      0.0012     10.56 RIGHT   2.9800E-01    -70.60  5.5528E-02    -71.00
   20.00    350.00     -1.61   -54.08    -1.61      0.0024     11.09 RIGHT   2.9822E-01    -69.96  5.8483E-02    -70.68
   25.00    350.00     -1.69   -49.67    -1.69      0.0040     11.84 RIGHT   2.9455E-01    -69.13  6.1738E-02    -70.27
   30.00    350.00     -1.89   -46.02    -1.89      0.0062     12.81 RIGHT   2.8689E-01    -68.15  6.5245E-02    -69.79
   35.00    350.00     -2.20   -42.85    -2.20      0.0093     14.05 RIGHT   2.7524E-01    -67.01  6.8947E-02    -69.26
   40.00    350.00     -2.64   -40.01    -2.64      0.0135     15.64 RIGHT   2.5969E-01    -65.72  7.2772E-02    -68.70
   45.00    350.00     -3.22   -37.41    -3.22      0.0195     17.65 RIGHT   2.4042E-01    -64.26  7.6641E-02    -68.13
   50.00    350.00     -3.95   -34.97    -3.95      0.0281     20.23 RIGHT   2.1771E-01    -62.61  8.0468E-02    -67.57
   55.00    350.00     -4.84   -32.65    -4.84      0.0407     23.60 RIGHT   1.9188E-01    -60.69  8.4167E-02    -67.03
   60.00    350.00     -5.91   -30.39    -5.90      0.0597     28.08 RIGHT   1.6335E-01    -58.32  8.7650E-02    -66.54
   65.00    350.00     -7.17   -28.18    -7.14      0.0891     34.23 RIGHT   1.3261E-01    -55.18  9.0835E-02    -66.10
   70.00    350.00     -8.59   -26.03    -8.51      0.1342     42.96 RIGHT   1.0031E-01    -50.41  9.3648E-02    -65.74
   75.00    350.00    -10.03   -24.07    -9.87      0.1986     55.71 RIGHT   6.7573E-02    -41.50  9.6024E-02    -65.46
   80.00    350.00    -11.13   -22.67   -10.84      0.2648     74.15 RIGHT   3.7908E-02    -17.96  9.7910E-02    -65.26
   85.00    350.00    -11.27   -22.45   -10.95      0.2761    -83.21 RIGHT   2.9829E-02     46.29  9.9265E-02    -65.16
   90.00    350.00    -10.32   -23.52   -10.11      0.2186    -63.16 RIGHT   5.4821E-02     85.15  1.0006E-01    -65.16
   95.00    350.00     -8.86   -25.33    -8.76      0.1501    -48.94 RIGHT   8.7913E-02     97.51  1.0029E-01    -65.27
  100.00    350.00     -7.35   -27.41    -7.30      0.0993    -39.22 RIGHT   1.2196E-01    102.96  9.9960E-02    -65.47
  105.00    350.00     -5.97   -29.59    -5.95      0.0659    -32.41 RIGHT   1.5537E-01    105.90  9.9080E-02    -65.77
  110.00    350.00     -4.77   -31.84    -4.76      0.0443    -27.45 RIGHT   1.8739E-01    107.65  9.7684E-02    -66.16
  115.00    350.00     -3.74   -34.18    -3.74      0.0301    -23.73 RIGHT   2.1751E-01    108.69  9.5819E-02    -66.63
  120.00    350.00     -2.88   -36.64    -2.88      0.0205    -20.84 RIGHT   2.4533E-01    109.29  9.3539E-02    -67.18
  125.00    350.00     -2.15   -39.27    -2.15      0.0139    -18.56 RIGHT   2.7049E-01    109.57  9.0911E-02    -67.78
  130.00    350.00     -1.56   -42.12    -1.56      0.0094    -16.73 RIGHT   2.9271E-01    109.62  8.8007E-02    -68.43
  135.00    350.00     -1.07   -45.22    -1.07      0.0062    -15.23 RIGHT   3.1176E-01    109.49  8.4905E-02    -69.10
  140.00    350.00     -0.69   -48.65    -0.69      0.0040    -14.00 RIGHT   3.2748E-01    109.24  8.1684E-02    -69.78
  145.00    350.00     -0.41   -52.49    -0.41      0.0025    -13.00 RIGHT   3.3976E-01    108.90  7.8420E-02    -70.45
  150.00    350.00     -0.22   -56.82    -0.22      0.0015    -12.17 RIGHT   3.4857E-01    108.51  7.5187E-02    -71.07
  155.00    350.00     -0.10   -61.77    -0.10      0.0008    -11.51 RIGHT   3.5397E-01    108.11  7.2050E-02    -71.65
  160.00    350.00     -0.07   -67.51    -0.07      0.0004    -10.98 RIGHT   3.5607E-01    107.73  6.9065E-02    -72.14
  165.00    350.00     -0.10   -74.30    -0.10      0.0002    -10.57 RIGHT   3.5508E-01    107.40  6.6276E-02    -72.53
  170.00    350.00     -0.21   -82.67    -0.21      0.0001    -10.28 RIGHT   3.5126E-01    107.16  6.3714E-02    -72.81
  175.00    350.00     -0.37   -94.42    -0.37      0.0000    -10.09 RIGHT   3.4495E-01    107.04  6.1398E-02    -72.96
  180.00    350.00     -0.59  -999.99    -0.59      0.0000    -10.00 LINEAR  3.3651E-01    107.05  5.9336E-02    -72.95
    0.00    355.00     -2.30  -999.99    -2.30      0.0000      5.00 LINEAR  2.7941E-01    -71.19  2.4445E-02    -71.19
    5.00    355.00     -2.14   -90.29    -2.14      0.0000      5.01 RIGHT   2.8480E-01    -71.24  2.4957E-02    -71.27
   10.00    355.00     -2.06   -73.88    -2.06      0.0003      5.10 RIGHT   2.8718E-01    -71.17  2.5643E-02    -71.34
   15.00    355.00     -2.08   -65.68    -2.08      0.0007      5.29 RIGHT   2.8643E-01    -70.98  2.6502E-02    -71.39
   20.00    355.00     -2.20   -60.07    -2.20      0.0013      5.57 RIGHT   2.8244E-01    -70.67  2.7526E-02    -71.43
   25.00    355.00     -2.42   -55.74    -2.42      0.0022      5.95 RIGHT   2.7517E-01    -70.25  2.8702E-02    -71.45
   30.00    355.00     -2.75   -52.16    -2.75      0.0034      6.47 RIGHT   2.6463E-01    -69.72  3.0010E-02    -71.45
   35.00    355.00     -3.20   -49.06    -3.20      0.0051      7.13 RIGHT   2.5087E-01    -69.06  3.1425E-02    -71.43
   40.00    355.00     -3.79   -46.29    -3.79      0.0075      8.00 RIGHT   2.3401E-01    -68.27  3.2917E-02    -71.39
   45.00    355.00     -4.53   -43.74    -4.53      0.0110      9.12 RIGHT   2.1421E-01    -67.33  3.4451E-02    -71.33
   50.00    355.00     -5.46   -41.31    -5.46      0.0161     10.60 RIGHT   1.9169E-01    -66.17  3.5992E-02    -71.27
   55.00    355.00     -6.61   -38.94    -6.61      0.0242     12.60 RIGHT   1.6672E-01    -64.71  3.7499E-02    -71.19
   60.00    355.00     -8.04   -36.53    -8.03      0.0376     15.44 RIGHT   1.3965E-01    -62.77  3.8936E-02    -71.12
   65.00    355.00     -9.84   -33.99    -9.83      0.0620     19.69 RIGHT   1.1088E-01    -59.94  4.0264E-02    -71.04
   70.00    355.00    -12.14   -31.18   -12.08      0.1117     26.58 RIGHT   8.0979E-02    -55.20  4.1450E-02    -70.98
   75.00    355.00    -15.03   -27.97   -14.82      0.2255     39.19 RIGHT   5.1034E-02    -45.06  4.2462E-02    -70.94
   80.00    355.00    -18.04   -24.87   -17.22      0.4555     68.35 RIGHT   2.5730E-02    -11.73  4.3277E-02    -70.91
   85.00    355.00    -17.43   -25.59   -16.81      0.3911    -60.73 RIGHT   2.9294E-02     61.83  4.3875E-02    -70.91
   90.00    355.00    -14.26   -29.08   -14.12      0.1816    -37.47 RIGHT   5.6716E-02     87.82  4.4243E-02    -70.93
   95.00    355.00    -11.46   -32.42   -11.42      0.0896    -26.55 RIGHT   8.7516E-02     96.30  4.4377E-02    -70.98
  100.00    355.00     -9.24   -35.39    -9.23      0.0492    -20.35 RIGHT   1.1837E-01    100.34  4.4277E-02    -71.05
  105.00    355.00     -7.47   -38.13    -7.47      0.0293    -16.43 RIGHT   1.4837E-01    102.68  4.3954E-02    -71.15
  110.00    355.00     -6.05   -40.76    -6.05      0.0184    -13.74 RIGHT   1.7703E-01    104.17  4.3422E-02    -71.28
  115.00    355.00     -4.88   -43.38    -4.88      0.0119    -11.80 RIGHT   2.0401E-01    105.18  4.2702E-02    -71.42
  120.00    355.00     -3.92   -46.05    -3.92      0.0078    -10.34 RIGHT   2.2903E-01    105.88  4.1822E-02    -71.58
  125.00    355.00     -3.12   -48.82    -3.12      0.0052     -9.20 RIGHT   2.5186E-01    106.36  4.0810E-02    -71.76
  130.00    355.00     -2.47   -51.76    -2.47      0.0034     -8.29 RIGHT   2.7233E-01    106.68  3.9700E-02    -71.94
  135.00    355.00     -1.93   -54.90    -1.93      0.0022     -7.56 RIGHT   2.9033E-01    106.89  3.8525E-02    -72.12
  140.00    355.00     -1.49   -58.29    -1.49      0.0014     -6.96 RIGHT   3.0576E-01    107.01  3.7320E-02    -72.30
  145.00    355.00     -1.14   -62.00    -1.14      0.0009     -6.47 RIGHT   3.1860E-01    107.07  3.6117E-02    -72.47
  150.00    355.00     -0.87   -66.08    -0.87      0.0005     -6.07 RIGHT   3.2884E-01    107.08  3.4946E-02    -72.62
  155.00    355.00     -0.68   -70.64    -0.68      0.0003     -5.74 RIGHT   3.3654E-01    107.07  3.3834E-02    -72.75
  160.00    355.00     -0.55   -75.80    -0.55      0.0002     -5.48 RIGHT   3.4176E-01    107.04  3.2804E-02    -72.85
  165.00    355.00     -0.48   -81.85    -0.48      0.0001     -5.28 RIGHT   3.4462E-01    107.02  3.1873E-02    -72.93
  170.00    355.00     -0.46   -89.39    -0.46      0.0000     -5.14 RIGHT   3.4524E-01    107.01  3.1055E-02    -72.97
  175.00    355.00     -0.50  -100.48    -0.50      0.0000     -5.05 RIGHT   3.4378E-01    107.02  3.0357E-02    -72.98
  180.00    355.00     -0.59  -999.99    -0.59      0.0000     -5.00 LINEAR  3.4040E-01    107.05  2.9781E-02    -72.95
    0.00    360.00     -2.30  -999.99    -2.30      0.0000     -0.00 LINEAR  2.8048E-01    -71.19  5.7255E-12    108.81
    5.00    360.00     -2.30  -999.99    -2.30      0.0000     -0.00 LINEAR  2.8066E-01    -71.19  5.7387E-12    108.78
   10.00    360.00     -2.38  -999.99    -2.38      0.0000     -0.00 LINEAR  2.7793E-01    -71.12  5.7915E-12    108.71
   15.00    360.00     -2.56  -999.99    -2.56      0.0000     -0.00 LINEAR  2.7232E-01    -70.96  5.8825E-12    108.60
   20.00    360.00     -2.83  -999.99    -2.83      0.0000     -0.00 LINEAR  2.6388E-01    -70.72  6.0092E-12    108.47
   25.00    360.00     -3.21  -999.99    -3.21      0.0000     -0.00 LINEAR  2.5272E-01    -70.39  6.1680E-12    108.31
   30.00    360.00     -3.69  -999.99    -3.69      0.0000     -0.00 LINEAR  2.3896E-01    -69.95  6.3544E-12    108.14
   35.00    360.00     -4.30  -999.99    -4.30      0.0000     -0.00 LINEAR  2.2274E-01    -69.40  6.5633E-12    107.97
   40.00    360.00     -5.06  -999.99    -5.06      0.0000     -0.00 LINEAR  2.0425E-01    -68.71  6.7889E-12    107.80
   45.00    360.00     -5.98  -999.99    -5.98      0.0000     -0.00 LINEAR  1.8369E-01    -67.82  7.0247E-12    107.64
   50.00    360.00     -7.11  -999.99    -7.11      0.0000     -0.00 LINEAR  1.6131E-01    -66.69  7.2643E-12    107.49
   55.00    360.00     -8.50  -999.99    -8.50      0.0000     -0.00 LINEAR  1.3738E-01    -65.16  7.5012E-12    107.35
   60.00    360.00    -10.26  -999.99   -10.26      0.0000     -0.00 LINEAR  1.1219E-01    -62.98  7.7291E-12    107.23
   65.00    360.00    -12.56  -999.99   -12.56      0.0000     -0.00 LINEAR  8.6130E-02    -59.55  7.9420E-12    107.13
   70.00    360.00    -15.73  -999.99   -15.73      0.0000     -0.00 LINEAR  5.9775E-02    -53.20  8.1344E-12    107.04
   75.00    360.00    -20.47  -999.99   -20.47      0.0000     -0.00 LINEAR  3.4644E-02    -37.44  8.3019E-12    106.97
   80.00    360.00    -25.36  -999.99   -25.36      0.0000      0.00 LINEAR  1.9731E-02     17.35  8.4404E-12    106.91
   85.00    360.00    -20.59  -999.99   -20.59      0.0000      0.00 LINEAR  3.4178E-02     73.20  8.5472E-12    106.86
   90.00    360.00    -15.81  -999.99   -15.81      0.0000      0.00 LINEAR  5.9203E-02     89.28  8.6203E-12    106.83
   95.00    360.00    -12.62  -999.99   -12.62      0.0000      0.00 LINEAR  8.5522E-02     95.68  8.6591E-12    106.80
  100.00    360.00    -10.30  -999.99   -10.30      0.0000      0.00 LINEAR  1.1163E-01     99.08  8.6638E-12    106.79
  105.00    360.00     -8.52  -999.99    -8.52      0.0000      0.00 LINEAR  1.3703E-01    101.20  8.6356E-12    106.78
  110.00    360.00     -7.10  -999.99    -7.10      0.0000      0.00 LINEAR  1.6143E-01    102.66  8.5767E-12    106.78
  115.00    360.00     -5.93  -999.99    -5.93      0.0000      0.00 LINEAR  1.8463E-01    103.72  8.4903E-12    106.79
  120.00    360.00     -4.96  -999.99    -4.96      0.0000      0.00 LINEAR  2.0650E-01    104.51  8.3802E-12    106.80
  125.00    360.00     -4.14  -999.99    -4.14      0.0000      0.00 LINEAR  2.2690E-01    105.12  8.2509E-12    106.82
  130.00    360.00     -3.45  -999.99    -3.45      0.0000      0.00 LINEAR  2.4577E-01    105.60  8.1071E-12    106.84
  135.00    360.00     -2.86  -999.99    -2.86      0.0000      0.00 LINEAR  2.6303E-01    105.97  7.9542E-12    106.86
  140.00    360.00     -2.36  -999.99    -2.36      0.0000      0.00 LINEAR  2.7863E-01    106.26  7.7975E-12    106.88
  145.00    360.00     -1.94  -999.99    -1.94      0.0000      0.00 LINEAR  2.9254E-01    106.49  7.6422E-12    106.91
  150.00    360.00     -1.58  -999.99    -1.58      0.0000      0.00 LINEAR  3.0474E-01    106.66  7.4936E-12    106.94
  155.00    360.00     -1.29  -999.99    -1.29      0.0000      0.00 LINEAR  3.1523E-01    106.79  7.3565E-12    106.96
  160.00    360.00     -1.05  -999.99    -1.05      0.0000      0.00 LINEAR  3.2398E-01    106.89  7.2354E-12    106.99
  165.00    360.00     -0.86  -999.99    -0.86      0.0000      0.00 LINEAR  3.3101E-01    106.96  7.1339E-12    107.01
  170.00    360.00     -0.73  -999.99    -0.73      0.0000      0.00 LINEAR  3.3630E-01    107.01  7.0553E-12    107.03
  175.00    360.00     -0.63  -999.99    -0.63      0.0000      0.00 LINEAR  3.3987E-01    107.04  7.0019E-12    107.04
  180.00    360.00     -0.59  -999.99    -0.59      0.0000      0.00 LINEAR  3.4170E-01    107.05  6.9754E-12    107.05



  DATA CARD No:   5 EN   0     0     0     0  0.00000E+00  0.00000E+00  0.00000E+00  0.00000E+00  0.00000E+00  0.00000E+00

  TOTAL RUN TIME: 40 msec