


                               __________________________________________
                              |                                          |
                              |  NUMERICAL ELECTROMAGNETICS CODE (nec2c) |
                              |   Translated to 'C' in Double Precision  |
                              |__________________________________________|



                               ---------------- COMMENTS ----------------
                               Helix with cavity
                              



                               -------- STRUCTURE SPECIFICATION --------
                                     COORDINATES MUST BE INPUT IN
                                     METERS OR BE SCALED TO METERS
                                     BEFORE STRUCTURE INPUT IS ENDED

  WIRE                                                                                 SEG FIRST  LAST  TAG
   No:        X1         Y1         Z1         X2         Y2         Z2       RADIUS   No:   SEG   SEG  No:
     1     0.05232    0.00000    0.00000    0.05461    0.00000    0.02032    0.00238     3     1     3    1
     2 HELIX STRUCTURE - SPACING OF TURNS:    0.076 AXIAL LENGTH:    0.762     0.002   160     4   163    2
       RADIUS X1:   0.055 Y1:   0.055 X2:   0.055 Y2:   0.055 
       THE PITCH ANGLE IS: 12.5000    THE LENGTH OF WIRE/TURN IS: 0.3515
     THE STRUCTURE HAS BEEN MOVED, MOVE DATA CARD IS:
     0     0    0.00000    0.00000    0.00000    0.00000    0.00000    0.02032    2.00000
     3    -0.07849   -0.10465    0.00000   -0.05232   -0.10465    0.00000    0.00416     1   164   164    3
     4    -0.05232   -0.10465    0.00000   -0.02616   -0.10465    0.00000    0.00416     1   165   165    4
     5    -0.02616   -0.10465    0.00000    0.00000   -0.10465    0.00000    0.00416     1   166   166    5
     6     0.00000   -0.10465    0.00000    0.02616   -0.10465    0.00000    0.00416     1   167   167    6
     7     0.02616   -0.10465    0.00000    0.05232   -0.10465    0.00000    0.00416     1   168   168    7
     8     0.05232   -0.10465    0.00000    0.07849   -0.10465    0.00000    0.00416     1   169   169    8
     9    -0.10465   -0.07849    0.00000   -0.07849   -0.07849    0.00000    0.00416     1   170   170    9
    10    -0.07849   -0.07849    0.00000   -0.05232   -0.07849    0.00000    0.00416     1   171   171   10
    11    -0.05232   -0.07849    0.00000   -0.02616   -0.07849    0.00000    0.00416     1   172   172   11
    12    -0.02616   -0.07849    0.00000    0.00000   -0.07849    0.00000    0.00416     1   173   173   12
    13     0.00000   -0.07849    0.00000    0.02616   -0.07849    0.00000    0.00416     1   174   174   13
    14     0.02616   -0.07849    0.00000    0.05232   -0.07849    0.00000    0.00416     1   175   175   14
    15     0.05232   -0.07849    0.00000    0.07849   -0.07849    0.00000    0.00416     1   176   176   15
    16     0.07849   -0.07849    0.00000    0.10465   -0.07849    0.00000    0.00416     1   177   177   16
    17    -0.10465   -0.05232    0.00000   -0.07849   -0.05232    0.00000    0.00416     1   178   178   17
    18    -0.07849   -0.05232    0.00000   -0.05232   -0.05232    0.00000    0.00416     1   179   179   18
    19    -0.05232   -0.05232    0.00000   -0.02616   -0.05232    0.00000    0.00416     1   180   180   19
    20    -0.02616   -0.05232    0.00000    0.00000   -0.05232    0.00000    0.00416     1   181   181   20
    21     0.00000   -0.05232    0.00000    0.02616   -0.05232    0.00000    0.00416     1   182   182   21
    22     0.02616   -0.05232    0.00000    0.05232   -0.05232    0.00000    0.00416     1   183   183   22
    23     0.05232   -0.05232    0.00000    0.07849   -0.05232    0.00000    0.00416     1   184   184   23
    24     0.07849   -0.05232    0.00000    0.10465   -0.05232    0.00000    0.00416     1   185   185   24
    25    -0.10465   -0.02616    0.00000   -0.07849   -0.02616    0.00000    0.00416     1   186   186   25
    26    -0.07849   -0.02616    0.00000   -0.05232   -0.02616    0.00000    0.00416     1   187   187   26
    27    -0.05232   -0.02616    0.00000   -0.02616   -0.02616    0.00000    0.00416     1   188   188   27
    28    -0.02616   -0.02616    0.00000    0.00000   -0.02616    0.00000    0.00416     1   189   189   28
    29     0.00000   -0.02616    0.00000    0.02616   -0.02616    0.00000    0.00416     1   190   190   29
    30     0.02616   -0.02616    0.00000    0.05232   -0.02616    0.00000    0.00416     1   191   191   30
    31     0.05232   -0.02616    0.00000    0.07849   -0.02616    0.00000    0.00416     1   192   192   31
    32     0.07849   -0.02616    0.00000    0.10465   -0.02616    0.00000    0.00416     1   193   193   32
    33    -0.13081    0.00000    0.00000   -0.10465    0.00000    0.00000    0.00416     1   194   194   33
    34    -0.10465    0.00000    0.00000   -0.07849    0.00000    0.00000    0.00416     1   195   195   34
    35    -0.07849    0.00000    0.00000   -0.05232    0.00000    0.00000    0.00416     1   196   196   35
    36    -0.05232    0.00000    0.00000   -0.02616    0.00000    0.00000    0.00416     1   197   197   36
    37    -0.02616    0.00000    0.00000    0.00000    0.00000    0.00000    0.00416     1   198   198   37
    38     0.00000    0.00000    0.00000    0.02616    0.00000    0.00000    0.00416     1   199   199   38
    39     0.02616    0.00000    0.00000    0.05232    0.00000    0.00000    0.00416     1   200   200   39
    40     0.05232    0.00000    0.00000    0.07849    0.00000    0.00000    0.00416     1   201   201   40
    41     0.07849    0.00000    0.00000    0.10465    0.00000    0.00000    0.00416     1   202   202   41
    42     0.10465    0.00000    0.00000    0.13081    0.00000    0.00000    0.00416     1   203   203   42
    43    -0.10465    0.02616    0.00000   -0.07849    0.02616    0.00000    0.00416     1   204   204   43
    44    -0.07849    0.02616    0.00000   -0.05232    0.02616    0.00000    0.00416     1   205   205   44
    45    -0.05232    0.02616    0.00000   -0.02616    0.02616    0.00000    0.00416     1   206   206   45
    46    -0.02616    0.02616    0.00000    0.00000    0.02616    0.00000    0.00416     1   207   207   46
    47     0.00000    0.02616    0.00000    0.02616    0.02616    0.00000    0.00416     1   208   208   47
    48     0.02616    0.02616    0.00000    0.05232    0.02616    0.00000    0.00416     1   209   209   48
    49     0.05232    0.02616    0.00000    0.07849    0.02616    0.00000    0.00416     1   210   210   49
    50     0.07849    0.02616    0.00000    0.10465    0.02616    0.00000    0.00416     1   211   211   50
    51    -0.10465    0.05232    0.00000   -0.07849    0.05232    0.00000    0.00416     1   212   212   51
    52    -0.07849    0.05232    0.00000   -0.05232    0.05232    0.00000    0.00416     1   213   213   52
    53    -0.05232    0.05232    0.00000   -0.02616    0.05232    0.00000    0.00416     1   214   214   53
    54    -0.02616    0.05232    0.00000    0.00000    0.05232    0.00000    0.00416     1   215   215   54
    55     0.00000    0.05232    0.00000    0.02616    0.05232    0.00000    0.00416     1   216   216   55
    56     0.02616    0.05232    0.00000    0.05232    0.05232    0.00000    0.00416     1   217   217   56
    57     0.05232    0.05232    0.00000    0.07849    0.05232    0.00000    0.00416     1   218   218   57
    58     0.07849    0.05232    0.00000    0.10465    0.05232    0.00000    0.00416     1   219   219   58
    59    -0.10465    0.07849    0.00000   -0.07849    0.07849    0.00000    0.00416     1   220   220   59
    60    -0.07849    0.07849    0.00000   -0.05232    0.07849    0.00000    0.00416     1   221   221   60
    61    -0.05232    0.07849    0.00000   -0.02616    0.07849    0.00000    0.00416     1   222   222   61
    62    -0.02616    0.07849    0.00000    0.00000    0.07849    0.00000    0.00416     1   223   223   62
    63     0.00000    0.07849    0.00000    0.02616    0.07849    0.00000    0.00416     1   224   224   63
    64     0.02616    0.07849    0.00000    0.05232    0.07849    0.00000    0.00416     1   225   225   64
    65     0.05232    0.07849    0.00000    0.07849    0.07849    0.00000    0.00416     1   226   226   65
    66     0.07849    0.07849    0.00000    0.10465    0.07849    0.00000    0.00416     1   227   227   66
    67    -0.07849    0.10465    0.00000   -0.05232    0.10465    0.00000    0.00416     1   228   228   67
    68    -0.05232    0.10465    0.00000   -0.02616    0.10465    0.00000    0.00416     1   229   229   68
    69    -0.02616    0.10465    0.00000    0.00000    0.10465    0.00000    0.00416     1   230   230   69
    70     0.00000    0.10465    0.00000    0.02616    0.10465    0.00000    0.00416     1   231   231   70
    71     0.02616    0.10465    0.00000    0.05232    0.10465    0.00000    0.00416     1   232   232   71
    72     0.05232    0.10465    0.00000    0.07849    0.10465    0.00000    0.00416     1   233   233   72
    73    -0.10465   -0.07849    0.00000   -0.10465   -0.05232    0.00000    0.00416     1   234   234   73
    74    -0.10465   -0.05232    0.00000   -0.10465   -0.02616    0.00000    0.00416     1   235   235   74
    75    -0.10465   -0.02616    0.00000   -0.10465    0.00000    0.00000    0.00416     1   236   236   75
    76    -0.10465    0.00000    0.00000   -0.10465    0.02616    0.00000    0.00416     1   237   237   76
    77    -0.10465    0.02616    0.00000   -0.10465    0.05232    0.00000    0.00416     1   238   238   77
    78    -0.10465    0.05232    0.00000   -0.10465    0.07849    0.00000    0.00416     1   239   239   78
    79    -0.07849   -0.10465    0.00000   -0.07849   -0.07849    0.00000    0.00416     1   240   240   79
    80    -0.07849   -0.07849    0.00000   -0.07849   -0.05232    0.00000    0.00416     1   241   241   80
    81    -0.07849   -0.05232    0.00000   -0.07849   -0.02616    0.00000    0.00416     1   242   242   81
    82    -0.07849   -0.02616    0.00000   -0.07849    0.00000    0.00000    0.00416     1   243   243   82
    83    -0.07849    0.00000    0.00000   -0.07849    0.02616    0.00000    0.00416     1   244   244   83
    84    -0.07849    0.02616    0.00000   -0.07849    0.05232    0.00000    0.00416     1   245   245   84
    85    -0.07849    0.05232    0.00000   -0.07849    0.07849    0.00000    0.00416     1   246   246   85
    86    -0.07849    0.07849    0.00000   -0.07849    0.10465    0.00000    0.00416     1   247   247   86
    87    -0.05232   -0.10465    0.00000   -0.05232   -0.07849    0.00000    0.00416     1   248   248   87
    88    -0.05232   -0.07849    0.00000   -0.05232   -0.05232    0.00000    0.00416     1   249   249   88
    89    -0.05232   -0.05232    0.00000   -0.05232   -0.02616    0.00000    0.00416     1   250   250   89
    90    -0.05232   -0.02616    0.00000   -0.05232    0.00000    0.00000    0.00416     1   251   251   90
    91    -0.05232    0.00000    0.00000   -0.05232    0.02616    0.00000    0.00416     1   252   252   91
    92    -0.05232    0.02616    0.00000   -0.05232    0.05232    0.00000    0.00416     1   253   253   92
    93    -0.05232    0.05232    0.00000   -0.05232    0.07849    0.00000    0.00416     1   254   254   93
    94    -0.05232    0.07849    0.00000   -0.05232    0.10465    0.00000    0.00416     1   255   255   94
    95    -0.02616   -0.10465    0.00000   -0.02616   -0.07849    0.00000    0.00416     1   256   256   95
    96    -0.02616   -0.07849    0.00000   -0.02616   -0.05232    0.00000    0.00416     1   257   257   96
    97    -0.02616   -0.05232    0.00000   -0.02616   -0.02616    0.00000    0.00416     1   258   258   97
    98    -0.02616   -0.02616    0.00000   -0.02616    0.00000    0.00000    0.00416     1   259   259   98
    99    -0.02616    0.00000    0.00000   -0.02616    0.02616    0.00000    0.00416     1   260   260   99
   100    -0.02616    0.02616    0.00000   -0.02616    0.05232    0.00000    0.00416     1   261   261  100
   101    -0.02616    0.05232    0.00000   -0.02616    0.07849    0.00000    0.00416     1   262   262  101
   102    -0.02616    0.07849    0.00000   -0.02616    0.10465    0.00000    0.00416     1   263   263  102
   103     0.00000   -0.13081    0.00000    0.00000   -0.10465    0.00000    0.00416     1   264   264  103
   104     0.00000   -0.10465    0.00000    0.00000   -0.07849    0.00000    0.00416     1   265   265  104
   105     0.00000   -0.07849    0.00000    0.00000   -0.05232    0.00000    0.00416     1   266   266  105
   106     0.00000   -0.05232    0.00000    0.00000   -0.02616    0.00000    0.00416     1   267   267  106
   107     0.00000   -0.02616    0.00000    0.00000    0.00000    0.00000    0.00416     1   268   268  107
   108     0.00000    0.00000    0.00000    0.00000    0.02616    0.00000    0.00416     1   269   269  108
   109     0.00000    0.02616    0.00000    0.00000    0.05232    0.00000    0.00416     1   270   270  109
   110     0.00000    0.05232    0.00000    0.00000    0.07849    0.00000    0.00416     1   271   271  110
   111     0.00000    0.07849    0.00000    0.00000    0.10465    0.00000    0.00416     1   272   272  111
   112     0.00000    0.10465    0.00000    0.00000    0.13081    0.00000    0.00416     1   273   273  112
   113     0.02616   -0.10465    0.00000    0.02616   -0.07849    0.00000    0.00416     1   274   274  113
   114     0.02616   -0.07849    0.00000    0.02616   -0.05232    0.00000    0.00416     1   275   275  114
   115     0.02616   -0.05232    0.00000    0.02616   -0.02616    0.00000    0.00416     1   276   276  115
   116     0.02616   -0.02616    0.00000    0.02616    0.00000    0.00000    0.00416     1   277   277  116
   117     0.02616    0.00000    0.00000    0.02616    0.02616    0.00000    0.00416     1   278   278  117
   118     0.02616    0.02616    0.00000    0.02616    0.05232    0.00000    0.00416     1   279   279  118
   119     0.02616    0.05232    0.00000    0.02616    0.07849    0.00000    0.00416     1   280   280  119
   120     0.02616    0.07849    0.00000    0.02616    0.10465    0.00000    0.00416     1   281   281  120
   121     0.05232   -0.10465    0.00000    0.05232   -0.07849    0.00000    0.00416     1   282   282  121
   122     0.05232   -0.07849    0.00000    0.05232   -0.05232    0.00000    0.00416     1   283   283  122
   123     0.05232   -0.05232    0.00000    0.05232   -0.02616    0.00000    0.00416     1   284   284  123
   124     0.05232   -0.02616    0.00000    0.05232    0.00000    0.00000    0.00416     1   285   285  124
   125     0.05232    0.00000    0.00000    0.05232    0.02616    0.00000    0.00416     1   286   286  125
   126     0.05232    0.02616    0.00000    0.05232    0.05232    0.00000    0.00416     1   287   287  126
   127     0.05232    0.05232    0.00000    0.05232    0.07849    0.00000    0.00416     1   288   288  127
   128     0.05232    0.07849    0.00000    0.05232    0.10465    0.00000    0.00416     1   289   289  128
   129     0.07849   -0.10465    0.00000    0.07849   -0.07849    0.00000    0.00416     1   290   290  129
   130     0.07849   -0.07849    0.00000    0.07849   -0.05232    0.00000    0.00416     1   291   291  130
   131     0.07849   -0.05232    0.00000    0.07849   -0.02616    0.00000    0.00416     1   292   292  131
   132     0.07849   -0.02616    0.00000    0.07849    0.00000    0.00000    0.00416     1   293   293  132
   133     0.07849    0.00000    0.00000    0.07849    0.02616    0.00000    0.00416     1   294   294  133
   134     0.07849    0.02616    0.00000    0.07849    0.05232    0.00000    0.00416     1   295   295  134
   135     0.07849    0.05232    0.00000    0.07849    0.07849    0.00000    0.00416     1   296   296  135
   136     0.07849    0.07849    0.00000    0.07849    0.10465    0.00000    0.00416     1   297   297  136
   137     0.10465   -0.07849    0.00000    0.10465   -0.05232    0.00000    0.00416     1   298   298  137
   138     0.10465   -0.05232    0.00000    0.10465   -0.02616    0.00000    0.00416     1   299   299  138
   139     0.10465   -0.02616    0.00000    0.10465    0.00000    0.00000    0.00416     1   300   300  139
   140     0.10465    0.00000    0.00000    0.10465    0.02616    0.00000    0.00416     1   301   301  140
   141     0.10465    0.02616    0.00000    0.10465    0.05232    0.00000    0.00416     1   302   302  141
   142     0.10465    0.05232    0.00000    0.10465    0.07849    0.00000    0.00416     1   303   303  142
   143     0.00000    0.13081    0.02540    0.02552    0.12830    0.02540    0.00404     1   304   304  143
   144     0.02552    0.12830    0.02540    0.05006    0.12085    0.02540    0.00404     1   305   305  144
   145     0.05006    0.12085    0.02540    0.07267    0.10877    0.02540    0.00404     1   306   306  145
   146     0.07267    0.10877    0.02540    0.09250    0.09250    0.02540    0.00404     1   307   307  146
   147     0.09250    0.09250    0.02540    0.10877    0.07267    0.02540    0.00404     1   308   308  147
   148     0.10877    0.07267    0.02540    0.12085    0.05006    0.02540    0.00404     1   309   309  148
   149     0.12085    0.05006    0.02540    0.12830    0.02552    0.02540    0.00404     1   310   310  149
   150     0.12830    0.02552    0.02540    0.13081    0.00000    0.02540    0.00404     1   311   311  150
   151     0.13081    0.00000    0.02540    0.12830   -0.02552    0.02540    0.00404     1   312   312  151
   152     0.12830   -0.02552    0.02540    0.12085   -0.05006    0.02540    0.00404     1   313   313  152
   153     0.12085   -0.05006    0.02540    0.10877   -0.07267    0.02540    0.00404     1   314   314  153
   154     0.10877   -0.07267    0.02540    0.09250   -0.09250    0.02540    0.00404     1   315   315  154
   155     0.09250   -0.09250    0.02540    0.07267   -0.10877    0.02540    0.00404     1   316   316  155
   156     0.07267   -0.10877    0.02540    0.05006   -0.12085    0.02540    0.00404     1   317   317  156
   157     0.05006   -0.12085    0.02540    0.02552   -0.12830    0.02540    0.00404     1   318   318  157
   158     0.02552   -0.12830    0.02540    0.00000   -0.13081    0.02540    0.00404     1   319   319  158
   159     0.00000   -0.13081    0.02540   -0.02552   -0.12830    0.02540    0.00404     1   320   320  159
   160    -0.02552   -0.12830    0.02540   -0.05006   -0.12085    0.02540    0.00404     1   321   321  160
   161    -0.05006   -0.12085    0.02540   -0.07267   -0.10877    0.02540    0.00404     1   322   322  161
   162    -0.07267   -0.10877    0.02540   -0.09250   -0.09250    0.02540    0.00404     1   323   323  162
   163    -0.09250   -0.09250    0.02540   -0.10877   -0.07267    0.02540    0.00404     1   324   324  163
   164    -0.10877   -0.07267    0.02540   -0.12085   -0.05006    0.02540    0.00404     1   325   325  164
   165    -0.12085   -0.05006    0.02540   -0.12830   -0.02552    0.02540    0.00404     1   326   326  165
   166    -0.12830   -0.02552    0.02540   -0.13081   -0.00000    0.02540    0.00404     1   327   327  166
   167    -0.13081   -0.00000    0.02540   -0.12830    0.02552    0.02540    0.00404     1   328   328  167
   168    -0.12830    0.02552    0.02540   -0.12085    0.05006    0.02540    0.00404     1   329   329  168
   169    -0.12085    0.05006    0.02540   -0.10877    0.07267    0.02540    0.00404     1   330   330  169
   170    -0.10877    0.07267    0.02540   -0.09250    0.09250    0.02540    0.00404     1   331   331  170
   171    -0.09250    0.09250    0.02540   -0.07267    0.10877    0.02540    0.00404     1   332   332  171
   172    -0.07267    0.10877    0.02540   -0.05006    0.12085    0.02540    0.00404     1   333   333  172
   173    -0.05006    0.12085    0.02540   -0.02552    0.12830    0.02540    0.00404     1   334   334  173
   174    -0.02552    0.12830    0.02540   -0.00000    0.13081    0.02540    0.00404     1   335   335  174
   175     0.00000    0.13081    0.05080    0.02552    0.12830    0.05080    0.00404     1   336   336  175
   176     0.02552    0.12830    0.05080    0.05006    0.12085    0.05080    0.00404     1   337   337  176
   177     0.05006    0.12085    0.05080    0.07267    0.10877    0.05080    0.00404     1   338   338  177
   178     0.07267    0.10877    0.05080    0.09250    0.09250    0.05080    0.00404     1   339   339  178
   179     0.09250    0.09250    0.05080    0.10877    0.07267    0.05080    0.00404     1   340   340  179
   180     0.10877    0.07267    0.05080    0.12085    0.05006    0.05080    0.00404     1   341   341  180
   181     0.12085    0.05006    0.05080    0.12830    0.02552    0.05080    0.00404     1   342   342  181
   182     0.12830    0.02552    0.05080    0.13081    0.00000    0.05080    0.00404     1   343   343  182
   183     0.13081    0.00000    0.05080    0.12830   -0.02552    0.05080    0.00404     1   344   344  183
   184     0.12830   -0.02552    0.05080    0.12085   -0.05006    0.05080    0.00404     1   345   345  184
   185     0.12085   -0.05006    0.05080    0.10877   -0.07267    0.05080    0.00404     1   346   346  185
   186     0.10877   -0.07267    0.05080    0.09250   -0.09250    0.05080    0.00404     1   347   347  186
   187     0.09250   -0.09250    0.05080    0.07267   -0.10877    0.05080    0.00404     1   348   348  187
   188     0.07267   -0.10877    0.05080    0.05006   -0.12085    0.05080    0.00404     1   349   349  188
   189     0.05006   -0.12085    0.05080    0.02552   -0.12830    0.05080    0.00404     1   350   350  189
   190     0.02552   -0.12830    0.05080    0.00000   -0.13081    0.05080    0.00404     1   351   351  190
   191     0.00000   -0.13081    0.05080   -0.02552   -0.12830    0.05080    0.00404     1   352   352  191
   192    -0.02552   -0.12830    0.05080   -0.05006   -0.12085    0.05080    0.00404     1   353   353  192
   193    -0.05006   -0.12085    0.05080   -0.07267   -0.10877    0.05080    0.00404     1   354   354  193
   194    -0.07267   -0.10877    0.05080   -0.09250   -0.09250    0.05080    0.00404     1   355   355  194
   195    -0.09250   -0.09250    0.05080   -0.10877   -0.07267    0.05080    0.00404     1   356   356  195
   196    -0.10877   -0.07267    0.05080   -0.12085   -0.05006    0.05080    0.00404     1   357   357  196
   197    -0.12085   -0.05006    0.05080   -0.12830   -0.02552    0.05080    0.00404     1   358   358  197
   198    -0.12830   -0.02552    0.05080   -0.13081   -0.00000    0.05080    0.00404     1   359   359  198
   199    -0.13081   -0.00000    0.05080   -0.12830    0.02552    0.05080    0.00404     1   360   360  199
   200    -0.12830    0.02552    0.05080   -0.12085    0.05006    0.05080    0.00404     1   361   361  200
   201    -0.12085    0.05006    0.05080   -0.10877    0.07267    0.05080    0.00404     1   362   362  201
   202    -0.10877    0.07267    0.05080   -0.09250    0.09250    0.05080    0.00404     1   363   363  202
   203    -0.09250    0.09250    0.05080   -0.07267    0.10877    0.05080    0.00404     1   364   364  203
   204    -0.07267    0.10877    0.05080   -0.05006    0.12085    0.05080    0.00404     1   365   365  204
   205    -0.05006    0.12085    0.05080   -0.02552    0.12830    0.05080    0.00404     1   366   366  205
   206    -0.02552    0.12830    0.05080   -0.00000    0.13081    0.05080    0.00404     1   367   367  206
   207     0.00000    0.13081    0.07620    0.02552    0.12830    0.07620    0.00404     1   368   368  207
   208     0.02552    0.12830    0.07620    0.05006    0.12085    0.07620    0.00404     1   369   369  208
   209     0.05006    0.12085    0.07620    0.07267    0.10877    0.07620    0.00404     1   370   370  209
   210     0.07267    0.10877    0.07620    0.09250    0.09250    0.07620    0.00404     1   371   371  210
   211     0.09250    0.09250    0.07620    0.10877    0.07267    0.07620    0.00404     1   372   372  211
   212     0.10877    0.07267    0.07620    0.12085    0.05006    0.07620    0.00404     1   373   373  212
   213     0.12085    0.05006    0.07620    0.12830    0.02552    0.07620    0.00404     1   374   374  213
   214     0.12830    0.02552    0.07620    0.13081    0.00000    0.07620    0.00404     1   375   375  214
   215     0.13081    0.00000    0.07620    0.12830   -0.02552    0.07620    0.00404     1   376   376  215
   216     0.12830   -0.02552    0.07620    0.12085   -0.05006    0.07620    0.00404     1   377   377  216
   217     0.12085   -0.05006    0.07620    0.10877   -0.07267    0.07620    0.00404     1   378   378  217
   218     0.10877   -0.07267    0.07620    0.09250   -0.09250    0.07620    0.00404     1   379   379  218
   219     0.09250   -0.09250    0.07620    0.07267   -0.10877    0.07620    0.00404     1   380   380  219
   220     0.07267   -0.10877    0.07620    0.05006   -0.12085    0.07620    0.00404     1   381   381  220
   221     0.05006   -0.12085    0.07620    0.02552   -0.12830    0.07620    0.00404     1   382   382  221
   222     0.02552   -0.12830    0.07620    0.00000   -0.13081    0.07620    0.00404     1   383   383  222
   223     0.00000   -0.13081    0.07620   -0.02552   -0.12830    0.07620    0.00404     1   384   384  223
   224    -0.02552   -0.12830    0.07620   -0.05006   -0.12085    0.07620    0.00404     1   385   385  224
   225    -0.05006   -0.12085    0.07620   -0.07267   -0.10877    0.07620    0.00404     1   386   386  225
   226    -0.07267   -0.10877    0.07620   -0.09250   -0.09250    0.07620    0.00404     1   387   387  226
   227    -0.09250   -0.09250    0.07620   -0.10877   -0.07267    0.07620    0.00404     1   388   388  227
   228    -0.10877   -0.07267    0.07620   -0.12085   -0.05006    0.07620    0.00404     1   389   389  228
   229    -0.12085   -0.05006    0.07620   -0.12830   -0.02552    0.07620    0.00404     1   390   390  229
   230    -0.12830   -0.02552    0.07620   -0.13081   -0.00000    0.07620    0.00404     1   391   391  230
   231    -0.13081   -0.00000    0.07620   -0.12830    0.02552    0.07620    0.00404     1   392   392  231
   232    -0.12830    0.02552    0.07620   -0.12085    0.05006    0.07620    0.00404     1   393   393  232
   233    -0.12085    0.05006    0.07620   -0.10877    0.07267    0.07620    0.00404     1   394   394  233
   234    -0.10877    0.07267    0.07620   -0.09250    0.09250    0.07620    0.00404     1   395   395  234
   235    -0.09250    0.09250    0.07620   -0.07267    0.10877    0.07620    0.00404     1   396   396  235
   236    -0.07267    0.10877    0.07620   -0.05006    0.12085    0.07620    0.00404     1   397   397  236
   237    -0.05006    0.12085    0.07620   -0.02552    0.12830    0.07620    0.00404     1   398   398  237
   238    -0.02552    0.12830    0.07620   -0.00000    0.13081    0.07620    0.00404     1   399   399  238
   239     0.00000    0.13081    0.10160    0.02552    0.12830    0.10160    0.00404     1   400   400  239
   240     0.02552    0.12830    0.10160    0.05006    0.12085    0.10160    0.00404     1   401   401  240
   241     0.05006    0.12085    0.10160    0.07267    0.10877    0.10160    0.00404     1   402   402  241
   242     0.07267    0.10877    0.10160    0.09250    0.09250    0.10160    0.00404     1   403   403  242
   243     0.09250    0.09250    0.10160    0.10877    0.07267    0.10160    0.00404     1   404   404  243
   244     0.10877    0.07267    0.10160    0.12085    0.05006    0.10160    0.00404     1   405   405  244
   245     0.12085    0.05006    0.10160    0.12830    0.02552    0.10160    0.00404     1   406   406  245
   246     0.12830    0.02552    0.10160    0.13081    0.00000    0.10160    0.00404     1   407   407  246
   247     0.13081    0.00000    0.10160    0.12830   -0.02552    0.10160    0.00404     1   408   408  247
   248     0.12830   -0.02552    0.10160    0.12085   -0.05006    0.10160    0.00404     1   409   409  248
   249     0.12085   -0.05006    0.10160    0.10877   -0.07267    0.10160    0.00404     1   410   410  249
   250     0.10877   -0.07267    0.10160    0.09250   -0.09250    0.10160    0.00404     1   411   411  250
   251     0.09250   -0.09250    0.10160    0.07267   -0.10877    0.10160    0.00404     1   412   412  251
   252     0.07267   -0.10877    0.10160    0.05006   -0.12085    0.10160    0.00404     1   413   413  252
   253     0.05006   -0.12085    0.10160    0.02552   -0.12830    0.10160    0.00404     1   414   414  253
   254     0.02552   -0.12830    0.10160    0.00000   -0.13081    0.10160    0.00404     1   415   415  254
   255     0.00000   -0.13081    0.10160   -0.02552   -0.12830    0.10160    0.00404     1   416   416  255
   256    -0.02552   -0.12830    0.10160   -0.05006   -0.12085    0.10160    0.00404     1   417   417  256
   257    -0.05006   -0.12085    0.10160   -0.07267   -0.10877    0.10160    0.00404     1   418   418  257
   258    -0.07267   -0.10877    0.10160   -0.09250   -0.09250    0.10160    0.00404     1   419   419  258
   259    -0.09250   -0.09250    0.10160   -0.10877   -0.07267    0.10160    0.00404     1   420   420  259
   260    -0.10877   -0.07267    0.10160   -0.12085   -0.05006    0.10160    0.00404     1   421   421  260
   261    -0.12085   -0.05006    0.10160   -0.12830   -0.02552    0.10160    0.00404     1   422   422  261
   262    -0.12830   -0.02552    0.10160   -0.13081   -0.00000    0.10160    0.00404     1   423   423  262
   263    -0.13081   -0.00000    0.10160   -0.12830    0.02552    0.10160    0.00404     1   424   424  263
   264    -0.12830    0.02552    0.10160   -0.12085    0.05006    0.10160    0.00404     1   425   425  264
   265    -0.12085    0.05006    0.10160   -0.10877    0.07267    0.10160    0.00404     1   426   426  265
   266    -0.10877    0.07267    0.10160   -0.09250    0.09250    0.10160    0.00404     1   427   427  266
   267    -0.09250    0.09250    0.10160   -0.07267    0.10877    0.10160    0.00404     1   428   428  267
   268    -0.07267    0.10877    0.10160   -0.05006    0.12085    0.10160    0.00404     1   429   429  268
   269    -0.05006    0.12085    0.10160   -0.02552    0.12830    0.10160    0.00404     1   430   430  269
   270    -0.02552    0.12830    0.10160   -0.00000    0.13081    0.10160    0.00404     1   431   431  270
   271     0.00000    0.13081    0.12700    0.02552    0.12830    0.12700    0.00404     1   432   432  271
   272     0.02552    0.12830    0.12700    0.05006    0.12085    0.12700    0.00404     1   433   433  272
   273     0.05006    0.12085    0.12700    0.07267    0.10877    0.12700    0.00404     1   434   434  273
   274     0.07267    0.10877    0.12700    0.09250    0.09250    0.12700    0.00404     1   435   435  274
   275     0.09250    0.09250    0.12700    0.10877    0.07267    0.12700    0.00404     1   436   436  275
   276     0.10877    0.07267    0.12700    0.12085    0.05006    0.12700    0.00404     1   437   437  276
   277     0.12085    0.05006    0.12700    0.12830    0.02552    0.12700    0.00404     1   438   438  277
   278     0.12830    0.02552    0.12700    0.13081    0.00000    0.12700    0.00404     1   439   439  278
   279     0.13081    0.00000    0.12700    0.12830   -0.02552    0.12700    0.00404     1   440   440  279
   280     0.12830   -0.02552    0.12700    0.12085   -0.05006    0.12700    0.00404     1   441   441  280
   281     0.12085   -0.05006    0.12700    0.10877   -0.07267    0.12700    0.00404     1   442   442  281
   282     0.10877   -0.07267    0.12700    0.09250   -0.09250    0.12700    0.00404     1   443   443  282
   283     0.09250   -0.09250    0.12700    0.07267   -0.10877    0.12700    0.00404     1   444   444  283
   284     0.07267   -0.10877    0.12700    0.05006   -0.12085    0.12700    0.00404     1   445   445  284
   285     0.05006   -0.12085    0.12700    0.02552   -0.12830    0.12700    0.00404     1   446   446  285
   286     0.02552   -0.12830    0.12700    0.00000   -0.13081    0.12700    0.00404     1   447   447  286
   287     0.00000   -0.13081    0.12700   -0.02552   -0.12830    0.12700    0.00404     1   448   448  287
   288    -0.02552   -0.12830    0.12700   -0.05006   -0.12085    0.12700    0.00404     1   449   449  288
   289    -0.05006   -0.12085    0.12700   -0.07267   -0.10877    0.12700    0.00404     1   450   450  289
   290    -0.07267   -0.10877    0.12700   -0.09250   -0.09250    0.12700    0.00404     1   451   451  290
   291    -0.09250   -0.09250    0.12700   -0.10877   -0.07267    0.12700    0.00404     1   452   452  291
   292    -0.10877   -0.07267    0.12700   -0.12085   -0.05006    0.12700    0.00404     1   453   453  292
   293    -0.12085   -0.05006    0.12700   -0.12830   -0.02552    0.12700    0.00404     1   454   454  293
   294    -0.12830   -0.02552    0.12700   -0.13081   -0.00000    0.12700    0.00404     1   455   455  294
   295    -0.13081   -0.00000    0.12700   -0.12830    0.02552    0.12700    0.00404     1   456   456  295
   296    -0.12830    0.02552    0.12700   -0.12085    0.05006    0.12700    0.00404     1   457   457  296
   297    -0.12085    0.05006    0.12700   -0.10877    0.07267    0.12700    0.00404     1   458   458  297
   298    -0.10877    0.07267    0.12700   -0.09250    0.09250    0.12700    0.00404     1   459   459  298
   299    -0.09250    0.09250    0.12700   -0.07267    0.10877    0.12700    0.00404     1   460   460  299
   300    -0.07267    0.10877    0.12700   -0.05006    0.12085    0.12700    0.00404     1   461   461  300
   301    -0.05006    0.12085    0.12700   -0.02552    0.12830    0.12700    0.00404     1   462   462  301
   302    -0.02552    0.12830    0.12700   -0.00000    0.13081    0.12700    0.00404     1   463   463  302
   303     0.00000    0.13081    0.00000    0.00000    0.13081    0.02540    0.00408     1   464   464  303
   304     0.00000    0.13081    0.02540    0.00000    0.13081    0.05080    0.00408     1   465   465  304
   305     0.00000    0.13081    0.05080    0.00000    0.13081    0.07620    0.00408     1   466   466  305
   306     0.00000    0.13081    0.07620    0.00000    0.13081    0.10160    0.00408     1   467   467  306
   307     0.00000    0.13081    0.10160    0.00000    0.13081    0.12700    0.00408     1   468   468  307
   308     0.02552    0.12830    0.00000    0.02552    0.12830    0.02540    0.00408     1   469   469  308
   309     0.02552    0.12830    0.02540    0.02552    0.12830    0.05080    0.00408     1   470   470  309
   310     0.02552    0.12830    0.05080    0.02552    0.12830    0.07620    0.00408     1   471   471  310
   311     0.02552    0.12830    0.07620    0.02552    0.12830    0.10160    0.00408     1   472   472  311
   312     0.02552    0.12830    0.10160    0.02552    0.12830    0.12700    0.00408     1   473   473  312
   313     0.05006    0.12085    0.00000    0.05006    0.12085    0.02540    0.00408     1   474   474  313
   314     0.05006    0.12085    0.02540    0.05006    0.12085    0.05080    0.00408     1   475   475  314
   315     0.05006    0.12085    0.05080    0.05006    0.12085    0.07620    0.00408     1   476   476  315
   316     0.05006    0.12085    0.07620    0.05006    0.12085    0.10160    0.00408     1   477   477  316
   317     0.05006    0.12085    0.10160    0.05006    0.12085    0.12700    0.00408     1   478   478  317
   318     0.07267    0.10877    0.00000    0.07267    0.10877    0.02540    0.00408     1   479   479  318
   319     0.07267    0.10877    0.02540    0.07267    0.10877    0.05080    0.00408     1   480   480  319
   320     0.07267    0.10877    0.05080    0.07267    0.10877    0.07620    0.00408     1   481   481  320
   321     0.07267    0.10877    0.07620    0.07267    0.10877    0.10160    0.00408     1   482   482  321
   322     0.07267    0.10877    0.10160    0.07267    0.10877    0.12700    0.00408     1   483   483  322
   323     0.09250    0.09250    0.00000    0.09250    0.09250    0.02540    0.00408     1   484   484  323
   324     0.09250    0.09250    0.02540    0.09250    0.09250    0.05080    0.00408     1   485   485  324
   325     0.09250    0.09250    0.05080    0.09250    0.09250    0.07620    0.00408     1   486   486  325
   326     0.09250    0.09250    0.07620    0.09250    0.09250    0.10160    0.00408     1   487   487  326
   327     0.09250    0.09250    0.10160    0.09250    0.09250    0.12700    0.00408     1   488   488  327
   328     0.10877    0.07267    0.00000    0.10877    0.07267    0.02540    0.00408     1   489   489  328
   329     0.10877    0.07267    0.02540    0.10877    0.07267    0.05080    0.00408     1   490   490  329
   330     0.10877    0.07267    0.05080    0.10877    0.07267    0.07620    0.00408     1   491   491  330
   331     0.10877    0.07267    0.07620    0.10877    0.07267    0.10160    0.00408     1   492   492  331
   332     0.10877    0.07267    0.10160    0.10877    0.07267    0.12700    0.00408     1   493   493  332
   333     0.12085    0.05006    0.00000    0.12085    0.05006    0.02540    0.00408     1   494   494  333
   334     0.12085    0.05006    0.02540    0.12085    0.05006    0.05080    0.00408     1   495   495  334
   335     0.12085    0.05006    0.05080    0.12085    0.05006    0.07620    0.00408     1   496   496  335
   336     0.12085    0.05006    0.07620    0.12085    0.05006    0.10160    0.00408     1   497   497  336
   337     0.12085    0.05006    0.10160    0.12085    0.05006    0.12700    0.00408     1   498   498  337
   338     0.12830    0.02552    0.00000    0.12830    0.02552    0.02540    0.00408     1   499   499  338
   339     0.12830    0.02552    0.02540    0.12830    0.02552    0.05080    0.00408     1   500   500  339
   340     0.12830    0.02552    0.05080    0.12830    0.02552    0.07620    0.00408     1   501   501  340
   341     0.12830    0.02552    0.07620    0.12830    0.02552    0.10160    0.00408     1   502   502  341
   342     0.12830    0.02552    0.10160    0.12830    0.02552    0.12700    0.00408     1   503   503  342
   343     0.13081    0.00000    0.00000    0.13081    0.00000    0.02540    0.00408     1   504   504  343
   344     0.13081    0.00000    0.02540    0.13081    0.00000    0.05080    0.00408     1   505   505  344
   345     0.13081    0.00000    0.05080    0.13081    0.00000    0.07620    0.00408     1   506   506  345
   346     0.13081    0.00000    0.07620    0.13081    0.00000    0.10160    0.00408     1   507   507  346
   347     0.13081    0.00000    0.10160    0.13081    0.00000    0.12700    0.00408     1   508   508  347
   348     0.12830   -0.02552    0.00000    0.12830   -0.02552    0.02540    0.00408     1   509   509  348
   349     0.12830   -0.02552    0.02540    0.12830   -0.02552    0.05080    0.00408     1   510   510  349
   350     0.12830   -0.02552    0.05080    0.12830   -0.02552    0.07620    0.00408     1   511   511  350
   351     0.12830   -0.02552    0.07620    0.12830   -0.02552    0.10160    0.00408     1   512   512  351
   352     0.12830   -0.02552    0.10160    0.12830   -0.02552    0.12700    0.00408     1   513   513  352
   353     0.12085   -0.05006    0.00000    0.12085   -0.05006    0.02540    0.00408     1   514   514  353
   354     0.12085   -0.05006    0.02540    0.12085   -0.05006    0.05080    0.00408     1   515   515  354
   355     0.12085   -0.05006    0.05080    0.12085   -0.05006    0.07620    0.00408     1   516   516  355
   356     0.12085   -0.05006    0.07620    0.12085   -0.05006    0.10160    0.00408     1   517   517  356
   357     0.12085   -0.05006    0.10160    0.12085   -0.05006    0.12700    0.00408     1   518   518  357
   358     0.10877   -0.07267    0.00000    0.10877   -0.07267    0.02540    0.00408     1   519   519  358
   359     0.10877   -0.07267    0.02540    0.10877   -0.07267    0.05080    0.00408     1   520   520  359
   360     0.10877   -0.07267    0.05080    0.10877   -0.07267    0.07620    0.00408     1   521   521  360
   361     0.10877   -0.07267    0.07620    0.10877   -0.07267    0.10160    0.00408     1   522   522  361
   362     0.10877   -0.07267    0.10160    0.10877   -0.07267    0.12700    0.00408     1   523   523  362
   363     0.09250   -0.09250    0.00000    0.09250   -0.09250    0.02540    0.00408     1   524   524  363
   364     0.09250   -0.09250    0.02540    0.09250   -0.09250    0.05080    0.00408     1   525   525  364
   365     0.09250   -0.09250    0.05080    0.09250   -0.09250    0.07620    0.00408     1   526   526  365
   366     0.09250   -0.09250    0.07620    0.09250   -0.09250    0.10160    0.00408     1   527   527  366
   367     0.09250   -0.09250    0.10160    0.09250   -0.09250    0.12700    0.00408     1   528   528  367
   368     0.07267   -0.10877    0.00000    0.07267   -0.10877    0.02540    0.00408     1   529   529  368
   369     0.07267   -0.10877    0.02540    0.07267   -0.10877    0.05080    0.00408     1   530   530  369
   370     0.07267   -0.10877    0.05080    0.07267   -0.10877    0.07620    0.00408     1   531   531  370
   371     0.07267   -0.10877    0.07620    0.07267   -0.10877    0.10160    0.00408     1   532   532  371
   372     0.07267   -0.10877    0.10160    0.07267   -0.10877    0.12700    0.00408     1   533   533  372
   373     0.05006   -0.12085    0.00000    0.05006   -0.12085    0.02540    0.00408     1   534   534  373
   374     0.05006   -0.12085    0.02540    0.05006   -0.12085    0.05080    0.00408     1   535   535  374
   375     0.05006   -0.12085    0.05080    0.05006   -0.12085    0.07620    0.00408     1   536   536  375
   376     0.05006   -0.12085    0.07620    0.05006   -0.12085    0.10160    0.00408     1   537   537  376
   377     0.05006   -0.12085    0.10160    0.05006   -0.12085    0.12700    0.00408     1   538   538  377
   378     0.02552   -0.12830    0.00000    0.02552   -0.12830    0.02540    0.00408     1   539   539  378
   379     0.02552   -0.12830    0.02540    0.02552   -0.12830    0.05080    0.00408     1   540   540  379
   380     0.02552   -0.12830    0.05080    0.02552   -0.12830    0.07620    0.00408     1   541   541  380
   381     0.02552   -0.12830    0.07620    0.02552   -0.12830    0.10160    0.00408     1   542   542  381
   382     0.02552   -0.12830    0.10160    0.02552   -0.12830    0.12700    0.00408     1   543   543  382
   383     0.00000   -0.13081    0.00000    0.00000   -0.13081    0.02540    0.00408     1   544   544  383
   384     0.00000   -0.13081    0.02540    0.00000   -0.13081    0.05080    0.00408     1   545   545  384
   385     0.00000   -0.13081    0.05080    0.00000   -0.13081    0.07620    0.00408     1   546   546  385
   386     0.00000   -0.13081    0.07620    0.00000   -0.13081    0.10160    0.00408     1   547   547  386
   387     0.00000   -0.13081    0.10160    0.00000   -0.13081    0.12700    0.00408     1   548   548  387
   388    -0.02552   -0.12830    0.00000   -0.02552   -0.12830    0.02540    0.00408     1   549   549  388
   389    -0.02552   -0.12830    0.02540   -0.02552   -0.12830    0.05080    0.00408     1   550   550  389
   390    -0.02552   -0.12830    0.05080   -0.02552   -0.12830    0.07620    0.00408     1   551   551  390
   391    -0.02552   -0.12830    0.07620   -0.02552   -0.12830    0.10160    0.00408     1   552   552  391
   392    -0.02552   -0.12830    0.10160   -0.02552   -0.12830    0.12700    0.00408     1   553   553  392
   393    -0.05006   -0.12085    0.00000   -0.05006   -0.12085    0.02540    0.00408     1   554   554  393
   394    -0.05006   -0.12085    0.02540   -0.05006   -0.12085    0.05080    0.00408     1   555   555  394
   395    -0.05006   -0.12085    0.05080   -0.05006   -0.12085    0.07620    0.00408     1   556   556  395
   396    -0.05006   -0.12085    0.07620   -0.05006   -0.12085    0.10160    0.00408     1   557   557  396
   397    -0.05006   -0.12085    0.10160   -0.05006   -0.12085    0.12700    0.00408     1   558   558  397
   398    -0.07267   -0.10877    0.00000   -0.07267   -0.10877    0.02540    0.00408     1   559   559  398
   399    -0.07267   -0.10877    0.02540   -0.07267   -0.10877    0.05080    0.00408     1   560   560  399
   400    -0.07267   -0.10877    0.05080   -0.07267   -0.10877    0.07620    0.00408     1   561   561  400
   401    -0.07267   -0.10877    0.07620   -0.07267   -0.10877    0.10160    0.00408     1   562   562  401
   402    -0.07267   -0.10877    0.10160   -0.07267   -0.10877    0.12700    0.00408     1   563   563  402
   403    -0.09250   -0.09250    0.00000   -0.09250   -0.09250    0.02540    0.00408     1   564   564  403
   404    -0.09250   -0.09250    0.02540   -0.09250   -0.09250    0.05080    0.00408     1   565   565  404
   405    -0.09250   -0.09250    0.05080   -0.09250   -0.09250    0.07620    0.00408     1   566   566  405
   406    -0.09250   -0.09250    0.07620   -0.09250   -0.09250    0.10160    0.00408     1   567   567  406
   407    -0.09250   -0.09250    0.10160   -0.09250   -0.09250    0.12700    0.00408     1   568   568  407
   408    -0.10877   -0.07267    0.00000   -0.10877   -0.07267    0.02540    0.00408     1   569   569  408
   409    -0.10877   -0.07267    0.02540   -0.10877   -0.07267    0.05080    0.00408     1   570   570  409
   410    -0.10877   -0.07267    0.05080   -0.10877   -0.07267    0.07620    0.00408     1   571   571  410
   411    -0.10877   -0.07267    0.07620   -0.10877   -0.07267    0.10160    0.00408     1   572   572  411
   412    -0.10877   -0.07267    0.10160   -0.10877   -0.07267    0.12700    0.00408     1   573   573  412
   413    -0.12085   -0.05006    0.00000   -0.12085   -0.05006    0.02540    0.00408     1   574   574  413
   414    -0.12085   -0.05006    0.02540   -0.12085   -0.05006    0.05080    0.00408     1   575   575  414
   415    -0.12085   -0.05006    0.05080   -0.12085   -0.05006    0.07620    0.00408     1   576   576  415
   416    -0.12085   -0.05006    0.07620   -0.12085   -0.05006    0.10160    0.00408     1   577   577  416
   417    -0.12085   -0.05006    0.10160   -0.12085   -0.05006    0.12700    0.00408     1   578   578  417
   418    -0.12830   -0.02552    0.00000   -0.12830   -0.02552    0.02540    0.00408     1   579   579  418
   419    -0.12830   -0.02552    0.02540   -0.12830   -0.02552    0.05080    0.00408     1   580   580  419
   420    -0.12830   -0.02552    0.05080   -0.12830   -0.02552    0.07620    0.00408     1   581   581  420
   421    -0.12830   -0.02552    0.07620   -0.12830   -0.02552    0.10160    0.00408     1   582   582  421
   422    -0.12830   -0.02552    0.10160   -0.12830   -0.02552    0.12700    0.00408     1   583   583  422
   423    -0.13081   -0.00000    0.00000   -0.13081   -0.00000    0.02540    0.00408     1   584   584  423
   424    -0.13081   -0.00000    0.02540   -0.13081   -0.00000    0.05080    0.00408     1   585   585  424
   425    -0.13081   -0.00000    0.05080   -0.13081   -0.00000    0.07620    0.00408     1   586   586  425
   426    -0.13081   -0.00000    0.07620   -0.13081   -0.00000    0.10160    0.00408     1   587   587  426
   427    -0.13081   -0.00000    0.10160   -0.13081   -0.00000    0.12700    0.00408     1   588   588  427
   428    -0.12830    0.02552    0.00000   -0.12830    0.02552    0.02540    0.00408     1   589   589  428
   429    -0.12830    0.02552    0.02540   -0.12830    0.02552    0.05080    0.00408     1   590   590  429
   430    -0.12830    0.02552    0.05080   -0.12830    0.02552    0.07620    0.00408     1   591   591  430
   431    -0.12830    0.02552    0.07620   -0.12830    0.02552    0.10160    0.00408     1   592   592  431
   432    -0.12830    0.02552    0.10160   -0.12830    0.02552    0.12700    0.00408     1   593   593  432
   433    -0.12085    0.05006    0.00000   -0.12085    0.05006    0.02540    0.00408     1   594   594  433
   434    -0.12085    0.05006    0.02540   -0.12085    0.05006    0.05080    0.00408     1   595   595  434
   435    -0.12085    0.05006    0.05080   -0.12085    0.05006    0.07620    0.00408     1   596   596  435
   436    -0.12085    0.05006    0.07620   -0.12085    0.05006    0.10160    0.00408     1   597   597  436
   437    -0.12085    0.05006    0.10160   -0.12085    0.05006    0.12700    0.00408     1   598   598  437
   438    -0.10877    0.07267    0.00000   -0.10877    0.07267    0.02540    0.00408     1   599   599  438
   439    -0.10877    0.07267    0.02540   -0.10877    0.07267    0.05080    0.00408     1   600   600  439
   440    -0.10877    0.07267    0.05080   -0.10877    0.07267    0.07620    0.00408     1   601   601  440
   441    -0.10877    0.07267    0.07620   -0.10877    0.07267    0.10160    0.00408     1   602   602  441
   442    -0.10877    0.07267    0.10160   -0.10877    0.07267    0.12700    0.00408     1   603   603  442
   443    -0.09250    0.09250    0.00000   -0.09250    0.09250    0.02540    0.00408     1   604   604  443
   444    -0.09250    0.09250    0.02540   -0.09250    0.09250    0.05080    0.00408     1   605   605  444
   445    -0.09250    0.09250    0.05080   -0.09250    0.09250    0.07620    0.00408     1   606   606  445
   446    -0.09250    0.09250    0.07620   -0.09250    0.09250    0.10160    0.00408     1   607   607  446
   447    -0.09250    0.09250    0.10160   -0.09250    0.09250    0.12700    0.00408     1   608   608  447
   448    -0.07267    0.10877    0.00000   -0.07267    0.10877    0.02540    0.00408     1   609   609  448
   449    -0.07267    0.10877    0.02540   -0.07267    0.10877    0.05080    0.00408     1   610   610  449
   450    -0.07267    0.10877    0.05080   -0.07267    0.10877    0.07620    0.00408     1   611   611  450
   451    -0.07267    0.10877    0.07620   -0.07267    0.10877    0.10160    0.00408     1   612   612  451
   452    -0.07267    0.10877    0.10160   -0.07267    0.10877    0.12700    0.00408     1   613   613  452
   453    -0.05006    0.12085    0.00000   -0.05006    0.12085    0.02540    0.00408     1   614   614  453
   454    -0.05006    0.12085    0.02540   -0.05006    0.12085    0.05080    0.00408     1   615   615  454
   455    -0.05006    0.12085    0.05080   -0.05006    0.12085    0.07620    0.00408     1   616   616  455
   456    -0.05006    0.12085    0.07620   -0.05006    0.12085    0.10160    0.00408     1   617   617  456
   457    -0.05006    0.12085    0.10160   -0.05006    0.12085    0.12700    0.00408     1   618   618  457
   458    -0.02552    0.12830    0.00000   -0.02552    0.12830    0.02540    0.00408     1   619   619  458
   459    -0.02552    0.12830    0.02540   -0.02552    0.12830    0.05080    0.00408     1   620   620  459
   460    -0.02552    0.12830    0.05080   -0.02552    0.12830    0.07620    0.00408     1   621   621  460
   461    -0.02552    0.12830    0.07620   -0.02552    0.12830    0.10160    0.00408     1   622   622  461
   462    -0.02552    0.12830    0.10160   -0.02552    0.12830    0.12700    0.00408     1   623   623  462
   463     0.02552    0.12830    0.00000    0.02616    0.10465    0.00000    0.00416     1   624   624  463
   464     0.00000    0.13081    0.00000    0.02552    0.12830    0.00000    0.00408     1   625   625  464
   465     0.05006    0.12085    0.00000    0.05232    0.10465    0.00000    0.00416     1   626   626  465
   466     0.02552    0.12830    0.00000    0.05006    0.12085    0.00000    0.00408     1   627   627  466
   467     0.09250    0.09250    0.00000    0.07849    0.10465    0.00000    0.00416     1   628   628  467
   468     0.12085    0.05006    0.00000    0.10465    0.05232    0.00000    0.00416     1   629   629  468
   469     0.12830    0.02552    0.00000    0.10465    0.02616    0.00000    0.00416     1   630   630  469
   470     0.12085    0.05006    0.00000    0.12830    0.02552    0.00000    0.00408     1   631   631  470
   471     0.12830    0.02552    0.00000    0.13081    0.00000    0.00000    0.00408     1   632   632  471
   472     0.12830   -0.02552    0.00000    0.10465   -0.02616    0.00000    0.00416     1   633   633  472
   473     0.13081    0.00000    0.00000    0.12830   -0.02552    0.00000    0.00408     1   634   634  473
   474     0.12085   -0.05006    0.00000    0.10465   -0.05232    0.00000    0.00416     1   635   635  474
   475     0.12830   -0.02552    0.00000    0.12085   -0.05006    0.00000    0.00408     1   636   636  475
   476     0.09250   -0.09250    0.00000    0.10465   -0.07849    0.00000    0.00416     1   637   637  476
   477     0.05006   -0.12085    0.00000    0.05232   -0.10465    0.00000    0.00416     1   638   638  477
   478     0.02552   -0.12830    0.00000    0.02616   -0.10465    0.00000    0.00416     1   639   639  478
   479     0.05006   -0.12085    0.00000    0.02552   -0.12830    0.00000    0.00408     1   640   640  479
   480     0.02552   -0.12830    0.00000    0.00000   -0.13081    0.00000    0.00408     1   641   641  480
   481    -0.02552   -0.12830    0.00000   -0.02616   -0.10465    0.00000    0.00416     1   642   642  481
   482     0.00000   -0.13081    0.00000   -0.02552   -0.12830    0.00000    0.00408     1   643   643  482
   483    -0.05006   -0.12085    0.00000   -0.05232   -0.10465    0.00000    0.00416     1   644   644  483
   484    -0.02552   -0.12830    0.00000   -0.05006   -0.12085    0.00000    0.00408     1   645   645  484
   485    -0.09250   -0.09250    0.00000   -0.07849   -0.10465    0.00000    0.00416     1   646   646  485
   486    -0.12085   -0.05006    0.00000   -0.10465   -0.05232    0.00000    0.00416     1   647   647  486
   487    -0.12830   -0.02552    0.00000   -0.10465   -0.02616    0.00000    0.00416     1   648   648  487
   488    -0.12085   -0.05006    0.00000   -0.12830   -0.02552    0.00000    0.00408     1   649   649  488
   489    -0.12830   -0.02552    0.00000   -0.13081   -0.00000    0.00000    0.00408     1   650   650  489
   490    -0.12830    0.02552    0.00000   -0.10465    0.02616    0.00000    0.00416     1   651   651  490
   491    -0.13081   -0.00000    0.00000   -0.12830    0.02552    0.00000    0.00408     1   652   652  491
   492    -0.12085    0.05006    0.00000   -0.10465    0.05232    0.00000    0.00416     1   653   653  492
   493    -0.12830    0.02552    0.00000   -0.12085    0.05006    0.00000    0.00408     1   654   654  493
   494    -0.09250    0.09250    0.00000   -0.10465    0.07849    0.00000    0.00416     1   655   655  494
   495    -0.05006    0.12085    0.00000   -0.05232    0.10465    0.00000    0.00416     1   656   656  495
   496    -0.02552    0.12830    0.00000   -0.02616    0.10465    0.00000    0.00416     1   657   657  496
   497    -0.05006    0.12085    0.00000   -0.02552    0.12830    0.00000    0.00408     1   658   658  497
   498    -0.02552    0.12830    0.00000   -0.00000    0.13081    0.00000    0.00408     1   659   659  498

     TOTAL SEGMENTS USED: 659   SEGMENTS IN A SYMMETRIC CELL: 659   SYMMETRY FLAG: 0

    ---------- MULTIPLE WIRE JUNCTIONS ----------
    JUNCTION  SEGMENTS (- FOR END 1, + FOR END 2)
       1         -1  200 -201  285 -286
       2       -164 -240  646
       3        164 -165 -248  644
       4        165 -166 -256  642
       5        166 -167  264 -265
       6        167 -168 -274  639
       7        168 -169 -282  638
       8        170 -171  240 -241
       9        171 -172  248 -249
      10        172 -173  256 -257
      11        173 -174  265 -266
      12        174 -175  274 -275
      13        175 -176  282 -283
      14        176 -177  290 -291
      15        177 -298  637
      16       -178  234 -235  647
      17        178 -179  241 -242
      18        179 -180  249 -250
      19        180 -181  257 -258
      20        181 -182  266 -267
      21        182 -183  275 -276
      22        183 -184  283 -284
      23        184 -185  291 -292
      24        185  298 -299  635
      25       -186  235 -236  648
      26        186 -187  242 -243
      27        187 -188  250 -251
      28        188 -189  258 -259
      29        189 -190  267 -268
      30        190 -191  276 -277
      31        191 -192  284 -285
      32        192 -193  292 -293
      33        193  299 -300  633
      34       -194 -584  650 -652
      35        194 -195  236 -237
      36        195 -196  243 -244
      37        196 -197  251 -252
      38        197 -198  259 -260
      39        198 -199  268 -269
      40        199 -200  277 -278
      41        201 -202  293 -294
      42        202 -203  300 -301
      43        203 -504  632 -634
      44       -204  237 -238  651
      45        204 -205  244 -245
      46        205 -206  252 -253
      47        206 -207  260 -261
      48        207 -208  269 -270
      49        208 -209  278 -279
      50        209 -210  286 -287
      51        210 -211  294 -295
      52        211  301 -302  630
      53       -212  238 -239  653
      54        212 -213  245 -246
      55        213 -214  253 -254
      56        214 -215  261 -262
      57        215 -216  270 -271
      58        216 -217  279 -280
      59        217 -218  287 -288
      60        218 -219  295 -296
      61        219  302 -303  629
      62       -220  239  655
      63        220 -221  246 -247
      64        221 -222  254 -255
      65        222 -223  262 -263
      66        223 -224  271 -272
      67        224 -225  280 -281
      68        225 -226  288 -289
      69        226 -227  296 -297
      70        228 -229  255  656
      71        229 -230  263  657
      72        230 -231  272 -273
      73        231 -232  281  624
      74        232 -233  289  626
      75        233  297  628
      76       -264 -544  641 -643
      77        273 -464 -625  659
      78       -304  335  464 -465
      79        304 -305  469 -470
      80        305 -306  474 -475
      81        306 -307  479 -480
      82        307 -308  484 -485
      83        308 -309  489 -490
      84        309 -310  494 -495
      85        310 -311  499 -500
      86        311 -312  504 -505
      87        312 -313  509 -510
      88        313 -314  514 -515
      89        314 -315  519 -520
      90        315 -316  524 -525
      91        316 -317  529 -530
      92        317 -318  534 -535
      93        318 -319  539 -540
      94        319 -320  544 -545
      95        320 -321  549 -550
      96        321 -322  554 -555
      97        322 -323  559 -560
      98        323 -324  564 -565
      99        324 -325  569 -570
     100        325 -326  574 -575
     101        326 -327  579 -580
     102        327 -328  584 -585
     103        328 -329  589 -590
     104        329 -330  594 -595
     105        330 -331  599 -600
     106        331 -332  604 -605
     107        332 -333  609 -610
     108        333 -334  614 -615
     109        334 -335  619 -620
     110       -336  367  465 -466
     111        336 -337  470 -471
     112        337 -338  475 -476
     113        338 -339  480 -481
     114        339 -340  485 -486
     115        340 -341  490 -491
     116        341 -342  495 -496
     117        342 -343  500 -501
     118        343 -344  505 -506
     119        344 -345  510 -511
     120        345 -346  515 -516
     121        346 -347  520 -521
     122        347 -348  525 -526
     123        348 -349  530 -531
     124        349 -350  535 -536
     125        350 -351  540 -541
     126        351 -352  545 -546
     127        352 -353  550 -551
     128        353 -354  555 -556
     129        354 -355  560 -561
     130        355 -356  565 -566
     131        356 -357  570 -571
     132        357 -358  575 -576
     133        358 -359  580 -581
     134        359 -360  585 -586
     135        360 -361  590 -591
     136        361 -362  595 -596
     137        362 -363  600 -601
     138        363 -364  605 -606
     139        364 -365  610 -611
     140        365 -366  615 -616
     141        366 -367  620 -621
     142       -368  399  466 -467
     143        368 -369  471 -472
     144        369 -370  476 -477
     145        370 -371  481 -482
     146        371 -372  486 -487
     147        372 -373  491 -492
     148        373 -374  496 -497
     149        374 -375  501 -502
     150        375 -376  506 -507
     151        376 -377  511 -512
     152        377 -378  516 -517
     153        378 -379  521 -522
     154        379 -380  526 -527
     155        380 -381  531 -532
     156        381 -382  536 -537
     157        382 -383  541 -542
     158        383 -384  546 -547
     159        384 -385  551 -552
     160        385 -386  556 -557
     161        386 -387  561 -562
     162        387 -388  566 -567
     163        388 -389  571 -572
     164        389 -390  576 -577
     165        390 -391  581 -582
     166        391 -392  586 -587
     167        392 -393  591 -592
     168        393 -394  596 -597
     169        394 -395  601 -602
     170        395 -396  606 -607
     171        396 -397  611 -612
     172        397 -398  616 -617
     173        398 -399  621 -622
     174       -400  431  467 -468
     175        400 -401  472 -473
     176        401 -402  477 -478
     177        402 -403  482 -483
     178        403 -404  487 -488
     179        404 -405  492 -493
     180        405 -406  497 -498
     181        406 -407  502 -503
     182        407 -408  507 -508
     183        408 -409  512 -513
     184        409 -410  517 -518
     185        410 -411  522 -523
     186        411 -412  527 -528
     187        412 -413  532 -533
     188        413 -414  537 -538
     189        414 -415  542 -543
     190        415 -416  547 -548
     191        416 -417  552 -553
     192        417 -418  557 -558
     193        418 -419  562 -563
     194        419 -420  567 -568
     195        420 -421  572 -573
     196        421 -422  577 -578
     197        422 -423  582 -583
     198        423 -424  587 -588
     199        424 -425  592 -593
     200        425 -426  597 -598
     201        426 -427  602 -603
     202        427 -428  607 -608
     203        428 -429  612 -613
     204        429 -430  617 -618
     205        430 -431  622 -623
     206       -432  463  468
     207        432 -433  473
     208        433 -434  478
     209        434 -435  483
     210        435 -436  488
     211        436 -437  493
     212        437 -438  498
     213        438 -439  503
     214        439 -440  508
     215        440 -441  513
     216        441 -442  518
     217        442 -443  523
     218        443 -444  528
     219        444 -445  533
     220        445 -446  538
     221        446 -447  543
     222        447 -448  548
     223        448 -449  553
     224        449 -450  558
     225        450 -451  563
     226        451 -452  568
     227        452 -453  573
     228        453 -454  578
     229        454 -455  583
     230        455 -456  588
     231        456 -457  593
     232        457 -458  598
     233        458 -459  603
     234        459 -460  608
     235        460 -461  613
     236        461 -462  618
     237        462 -463  623
     238       -469 -624  625 -627
     239       -474 -626  627
     240       -494 -629 -631
     241       -499 -630  631 -632
     242       -509 -633  634 -636
     243       -514 -635  636
     244       -534 -638 -640
     245       -539 -639  640 -641
     246       -549 -642  643 -645
     247       -554 -644  645
     248       -574 -647 -649
     249       -579 -648  649 -650
     250       -589 -651  652 -654
     251       -594 -653  654
     252       -614 -656 -658
     253       -619 -657  658 -659


                               ---------- SEGMENTATION DATA ----------
                                        COORDINATES IN METERS
                            I+ AND I- INDICATE THE SEGMENTS BEFORE AND AFTER I

   SEG    COORDINATES OF SEGM CENTER     SEGM    ORIENTATION ANGLES    WIRE    CONNECTION DATA   TAG
   No:       X         Y         Z      LENGTH     ALPHA      BETA    RADIUS    I-     I    I+   No:
     1    0.0527    0.0000    0.0034    0.0068   83.5812    0.0000    0.0024   200     1     2     1
     2    0.0535    0.0000    0.0102    0.0068   83.5812    0.0000    0.0024     1     2     3     1
     3    0.0542    0.0000    0.0169    0.0068   83.5812    0.0000    0.0024     2     3     4     1
     4    0.0525    0.0105    0.0227    0.0219   12.5784  101.2694    0.0024     3     4     5     2
     5    0.0445    0.0298    0.0275    0.0219   12.5784  123.8082    0.0024     4     5     6     2
     6    0.0297    0.0446    0.0322    0.0219   12.5784  146.3469    0.0024     5     6     7     2
     7    0.0103    0.0526    0.0370    0.0219   12.5784  168.8857    0.0024     6     7     8     2
     8   -0.0106    0.0525    0.0418    0.0219   12.5784 -168.5755    0.0024     7     8     9     2
     9   -0.0299    0.0444    0.0465    0.0219   12.5784 -146.0368    0.0024     8     9    10     2
    10   -0.0447    0.0296    0.0513    0.0219   12.5784 -123.4980    0.0024     9    10    11     2
    11   -0.0526    0.0102    0.0560    0.0219   12.5784 -100.9592    0.0024    10    11    12     2
    12   -0.0525   -0.0108    0.0608    0.0219   12.5784  -78.4205    0.0024    11    12    13     2
    13   -0.0443   -0.0300    0.0656    0.0219   12.5784  -55.8817    0.0024    12    13    14     2
    14   -0.0294   -0.0447    0.0703    0.0219   12.5784  -33.3429    0.0024    13    14    15     2
    15   -0.0100   -0.0526    0.0751    0.0219   12.5784  -10.8041    0.0024    14    15    16     2
    16    0.0109   -0.0524    0.0799    0.0219   12.5784   11.7346    0.0024    15    16    17     2
    17    0.0302   -0.0443    0.0846    0.0219   12.5784   34.2734    0.0024    16    17    18     2
    18    0.0448   -0.0293    0.0894    0.0219   12.5784   56.8122    0.0024    17    18    19     2
    19    0.0526   -0.0099    0.0941    0.0219   12.5784   79.3509    0.0024    18    19    20     2
    20    0.0524    0.0110    0.0989    0.0219   12.5784  101.8897    0.0024    19    20    21     2
    21    0.0442    0.0303    0.1037    0.0219   12.5784  124.4285    0.0024    20    21    22     2
    22    0.0292    0.0449    0.1084    0.0219   12.5784  146.9672    0.0024    21    22    23     2
    23    0.0098    0.0527    0.1132    0.0219   12.5784  169.5060    0.0024    22    23    24     2
    24   -0.0112    0.0524    0.1180    0.0219   12.5784 -167.9552    0.0024    23    24    25     2
    25   -0.0304    0.0441    0.1227    0.0219   12.5784 -145.4165    0.0024    24    25    26     2
    26   -0.0450    0.0291    0.1275    0.0219   12.5784 -122.8777    0.0024    25    26    27     2
    27   -0.0527    0.0096    0.1322    0.0219   12.5784 -100.3389    0.0024    26    27    28     2
    28   -0.0523   -0.0113    0.1370    0.0219   12.5784  -77.8001    0.0024    27    28    29     2
    29   -0.0440   -0.0305    0.1418    0.0219   12.5784  -55.2614    0.0024    28    29    30     2
    30   -0.0290   -0.0451    0.1465    0.0219   12.5784  -32.7226    0.0024    29    30    31     2
    31   -0.0095   -0.0527    0.1513    0.0219   12.5784  -10.1838    0.0024    30    31    32     2
    32    0.0115   -0.0523    0.1561    0.0219   12.5784   12.3549    0.0024    31    32    33     2
    33    0.0306   -0.0439    0.1608    0.0219   12.5784   34.8937    0.0024    32    33    34     2
    34    0.0451   -0.0288    0.1656    0.0219   12.5784   57.4325    0.0024    33    34    35     2
    35    0.0527   -0.0093    0.1703    0.0219   12.5784   79.9712    0.0024    34    35    36     2
    36    0.0523    0.0116    0.1751    0.0219   12.5784  102.5100    0.0024    35    36    37     2
    37    0.0438    0.0308    0.1799    0.0219   12.5784  125.0488    0.0024    36    37    38     2
    38    0.0287    0.0452    0.1846    0.0219   12.5784  147.5876    0.0024    37    38    39     2
    39    0.0092    0.0528    0.1894    0.0219   12.5784  170.1263    0.0024    38    39    40     2
    40   -0.0117    0.0523    0.1942    0.0219   12.5784 -167.3349    0.0024    39    40    41     2
    41   -0.0309    0.0438    0.1989    0.0219   12.5784 -144.7961    0.0024    40    41    42     2
    42   -0.0453    0.0286    0.2037    0.0219   12.5784 -122.2574    0.0024    41    42    43     2
    43   -0.0528    0.0090    0.2084    0.0219   12.5784  -99.7186    0.0024    42    43    44     2
    44   -0.0522   -0.0119    0.2132    0.0219   12.5784  -77.1798    0.0024    43    44    45     2
    45   -0.0437   -0.0310    0.2180    0.0219   12.5784  -54.6411    0.0024    44    45    46     2
    46   -0.0285   -0.0454    0.2227    0.0219   12.5784  -32.1023    0.0024    45    46    47     2
    47   -0.0089   -0.0528    0.2275    0.0219   12.5784   -9.5635    0.0024    46    47    48     2
    48    0.0120   -0.0522    0.2323    0.0219   12.5784   12.9753    0.0024    47    48    49     2
    49    0.0311   -0.0436    0.2370    0.0219   12.5784   35.5140    0.0024    48    49    50     2
    50    0.0454   -0.0283    0.2418    0.0219   12.5784   58.0528    0.0024    49    50    51     2
    51    0.0528   -0.0088    0.2465    0.0219   12.5784   80.5916    0.0024    50    51    52     2
    52    0.0522    0.0122    0.2513    0.0219   12.5784  103.1303    0.0024    51    52    53     2
    53    0.0435    0.0312    0.2561    0.0219   12.5784  125.6691    0.0024    52    53    54     2
    54    0.0282    0.0455    0.2608    0.0219   12.5784  148.2079    0.0024    53    54    55     2
    55    0.0086    0.0529    0.2656    0.0219   12.5784  170.7466    0.0024    54    55    56     2
    56   -0.0123    0.0521    0.2704    0.0219   12.5784 -166.7146    0.0024    55    56    57     2
    57   -0.0313    0.0434    0.2751    0.0219   12.5784 -144.1758    0.0024    56    57    58     2
    58   -0.0456    0.0281    0.2799    0.0219   12.5784 -121.6370    0.0024    57    58    59     2
    59   -0.0529    0.0085    0.2846    0.0219   12.5784  -99.0983    0.0024    58    59    60     2
    60   -0.0521   -0.0124    0.2894    0.0219   12.5784  -76.5595    0.0024    59    60    61     2
    61   -0.0433   -0.0315    0.2942    0.0219   12.5784  -54.0207    0.0024    60    61    62     2
    62   -0.0280   -0.0457    0.2989    0.0219   12.5784  -31.4820    0.0024    61    62    63     2
    63   -0.0083   -0.0529    0.3037    0.0219   12.5784   -8.9432    0.0024    62    63    64     2
    64    0.0126   -0.0521    0.3085    0.0219   12.5784   13.5956    0.0024    63    64    65     2
    65    0.0316   -0.0433    0.3132    0.0219   12.5784   36.1343    0.0024    64    65    66     2
    66    0.0457   -0.0278    0.3180    0.0219   12.5784   58.6731    0.0024    65    66    67     2
    67    0.0529   -0.0082    0.3227    0.0219   12.5784   81.2119    0.0024    66    67    68     2
    68    0.0520    0.0127    0.3275    0.0219   12.5784  103.7506    0.0024    67    68    69     2
    69    0.0432    0.0317    0.3323    0.0219   12.5784  126.2894    0.0024    68    69    70     2
    70    0.0277    0.0458    0.3370    0.0219   12.5784  148.8282    0.0024    69    70    71     2
    71    0.0080    0.0530    0.3418    0.0219   12.5784  171.3670    0.0024    70    71    72     2
    72   -0.0129    0.0520    0.3466    0.0219   12.5784 -166.0943    0.0024    71    72    73     2
    73   -0.0318    0.0431    0.3513    0.0219   12.5784 -143.5555    0.0024    72    73    74     2
    74   -0.0459    0.0276    0.3561    0.0219   12.5784 -121.0167    0.0024    73    74    75     2
    75   -0.0530    0.0079    0.3608    0.0219   12.5784  -98.4780    0.0024    74    75    76     2
    76   -0.0520   -0.0130    0.3656    0.0219   12.5784  -75.9392    0.0024    75    76    77     2
    77   -0.0430   -0.0319    0.3704    0.0219   12.5784  -53.4004    0.0024    76    77    78     2
    78   -0.0275   -0.0460    0.3751    0.0219   12.5784  -30.8617    0.0024    77    78    79     2
    79   -0.0078   -0.0530    0.3799    0.0219   12.5784   -8.3229    0.0024    78    79    80     2
    80    0.0132   -0.0519    0.3847    0.0219   12.5784   14.2159    0.0024    79    80    81     2
    81    0.0320   -0.0429    0.3894    0.0219   12.5784   36.7547    0.0024    80    81    82     2
    82    0.0460   -0.0273    0.3942    0.0219   12.5784   59.2934    0.0024    81    82    83     2
    83    0.0530   -0.0076    0.3989    0.0219   12.5784   81.8322    0.0024    82    83    84     2
    84    0.0519    0.0133    0.4037    0.0219   12.5784  104.3710    0.0024    83    84    85     2
    85    0.0428    0.0322    0.4085    0.0219   12.5784  126.9097    0.0024    84    85    86     2
    86    0.0272    0.0461    0.4132    0.0219   12.5784  149.4485    0.0024    85    86    87     2
    87    0.0075    0.0530    0.4180    0.0219   12.5784  171.9873    0.0024    86    87    88     2
    88   -0.0134    0.0518    0.4228    0.0219   12.5784 -165.4740    0.0024    87    88    89     2
    89   -0.0323    0.0427    0.4275    0.0219   12.5784 -142.9352    0.0024    88    89    90     2
    90   -0.0462    0.0271    0.4323    0.0219   12.5784 -120.3964    0.0024    89    90    91     2
    91   -0.0531    0.0073    0.4370    0.0219   12.5784  -97.8576    0.0024    90    91    92     2
    92   -0.0518   -0.0136    0.4418    0.0219   12.5784  -75.3189    0.0024    91    92    93     2
    93   -0.0426   -0.0324    0.4466    0.0219   12.5784  -52.7801    0.0024    92    93    94     2
    94   -0.0270   -0.0463    0.4513    0.0219   12.5784  -30.2413    0.0024    93    94    95     2
    95   -0.0072   -0.0531    0.4561    0.0219   12.5784   -7.7026    0.0024    94    95    96     2
    96    0.0137   -0.0518    0.4609    0.0219   12.5784   14.8362    0.0024    95    96    97     2
    97    0.0325   -0.0426    0.4656    0.0219   12.5784   37.3750    0.0024    96    97    98     2
    98    0.0463   -0.0268    0.4704    0.0219   12.5784   59.9137    0.0024    97    98    99     2
    99    0.0531   -0.0070    0.4751    0.0219   12.5784   82.4525    0.0024    98    99   100     2
   100    0.0517    0.0139    0.4799    0.0219   12.5784  104.9913    0.0024    99   100   101     2
   101    0.0425    0.0326    0.4847    0.0219   12.5784  127.5301    0.0024   100   101   102     2
   102    0.0267    0.0464    0.4894    0.0219   12.5784  150.0688    0.0024   101   102   103     2
   103    0.0069    0.0531    0.4942    0.0219   12.5784  172.6076    0.0024   102   103   104     2
   104   -0.0140    0.0517    0.4990    0.0219   12.5784 -164.8536    0.0024   103   104   105     2
   105   -0.0327    0.0424    0.5037    0.0219   12.5784 -142.3149    0.0024   104   105   106     2
   106   -0.0465    0.0266    0.5085    0.0219   12.5784 -119.7761    0.0024   105   106   107     2
   107   -0.0531    0.0067    0.5132    0.0219   12.5784  -97.2373    0.0024   106   107   108     2
   108   -0.0517   -0.0141    0.5180    0.0219   12.5784  -74.6986    0.0024   107   108   109     2
   109   -0.0423   -0.0329    0.5228    0.0219   12.5784  -52.1598    0.0024   108   109   110     2
   110   -0.0265   -0.0466    0.5275    0.0219   12.5784  -29.6210    0.0024   109   110   111     2
   111   -0.0066   -0.0531    0.5323    0.0219   12.5784   -7.0823    0.0024   110   111   112     2
   112    0.0143   -0.0516    0.5371    0.0219   12.5784   15.4565    0.0024   111   112   113     2
   113    0.0330   -0.0422    0.5418    0.0219   12.5784   37.9953    0.0024   112   113   114     2
   114    0.0466   -0.0263    0.5466    0.0219   12.5784   60.5341    0.0024   113   114   115     2
   115    0.0532   -0.0065    0.5513    0.0219   12.5784   83.0728    0.0024   114   115   116     2
   116    0.0516    0.0144    0.5561    0.0219   12.5784  105.6116    0.0024   115   116   117     2
   117    0.0421    0.0331    0.5609    0.0219   12.5784  128.1504    0.0024   116   117   118     2
   118    0.0262    0.0467    0.5656    0.0219   12.5784  150.6891    0.0024   117   118   119     2
   119    0.0063    0.0532    0.5704    0.0219   12.5784  173.2279    0.0024   118   119   120     2
   120   -0.0146    0.0515    0.5752    0.0219   12.5784 -164.2333    0.0024   119   120   121     2
   121   -0.0332    0.0420    0.5799    0.0219   12.5784 -141.6946    0.0024   120   121   122     2
   122   -0.0468    0.0261    0.5847    0.0219   12.5784 -119.1558    0.0024   121   122   123     2
   123   -0.0532    0.0062    0.5894    0.0219   12.5784  -96.6170    0.0024   122   123   124     2
   124   -0.0515   -0.0147    0.5942    0.0219   12.5784  -74.0782    0.0024   123   124   125     2
   125   -0.0419   -0.0333    0.5990    0.0219   12.5784  -51.5395    0.0024   124   125   126     2
   126   -0.0260   -0.0468    0.6037    0.0219   12.5784  -29.0007    0.0024   125   126   127     2
   127   -0.0060   -0.0532    0.6085    0.0219   12.5784   -6.4619    0.0024   126   127   128     2
   128    0.0148   -0.0515    0.6133    0.0219   12.5784   16.0768    0.0024   127   128   129     2
   129    0.0334   -0.0418    0.6180    0.0219   12.5784   38.6156    0.0024   128   129   130     2
   130    0.0469   -0.0258    0.6228    0.0219   12.5784   61.1544    0.0024   129   130   131     2
   131    0.0532   -0.0059    0.6275    0.0219   12.5784   83.6931    0.0024   130   131   132     2
   132    0.0514    0.0150    0.6323    0.0219   12.5784  106.2319    0.0024   131   132   133     2
   133    0.0418    0.0335    0.6371    0.0219   12.5784  128.7707    0.0024   132   133   134     2
   134    0.0257    0.0470    0.6418    0.0219   12.5784  151.3095    0.0024   133   134   135     2
   135    0.0057    0.0532    0.6466    0.0219   12.5784  173.8482    0.0024   134   135   136     2
   136   -0.0151    0.0514    0.6514    0.0219   12.5784 -163.6130    0.0024   135   136   137     2
   137   -0.0337    0.0417    0.6561    0.0219   12.5784 -141.0742    0.0024   136   137   138     2
   138   -0.0471    0.0256    0.6609    0.0219   12.5784 -118.5355    0.0024   137   138   139     2
   139   -0.0533    0.0056    0.6656    0.0219   12.5784  -95.9967    0.0024   138   139   140     2
   140   -0.0513   -0.0152    0.6704    0.0219   12.5784  -73.4579    0.0024   139   140   141     2
   141   -0.0416   -0.0338    0.6752    0.0219   12.5784  -50.9192    0.0024   140   141   142     2
   142   -0.0255   -0.0471    0.6799    0.0219   12.5784  -28.3804    0.0024   141   142   143     2
   143   -0.0055   -0.0533    0.6847    0.0219   12.5784   -5.8416    0.0024   142   143   144     2
   144    0.0154   -0.0513    0.6895    0.0219   12.5784   16.6972    0.0024   143   144   145     2
   145    0.0339   -0.0415    0.6942    0.0219   12.5784   39.2359    0.0024   144   145   146     2
   146    0.0472   -0.0253    0.6990    0.0219   12.5784   61.7747    0.0024   145   146   147     2
   147    0.0533   -0.0053    0.7037    0.0219   12.5784   84.3135    0.0024   146   147   148     2
   148    0.0513    0.0155    0.7085    0.0219   12.5784  106.8522    0.0024   147   148   149     2
   149    0.0414    0.0340    0.7133    0.0219   12.5784  129.3910    0.0024   148   149   150     2
   150    0.0252    0.0473    0.7180    0.0219   12.5784  151.9298    0.0024   149   150   151     2
   151    0.0052    0.0533    0.7228    0.0219   12.5784  174.4685    0.0024   150   151   152     2
   152   -0.0157    0.0512    0.7276    0.0219   12.5784 -162.9927    0.0024   151   152   153     2
   153   -0.0341    0.0413    0.7323    0.0219   12.5784 -140.4539    0.0024   152   153   154     2
   154   -0.0473    0.0251    0.7371    0.0219   12.5784 -117.9152    0.0024   153   154   155     2
   155   -0.0533    0.0050    0.7418    0.0219   12.5784  -95.3764    0.0024   154   155   156     2
[...]
  100.00     40.00     -5.46   -20.02    -5.31      0.1869     -4.49 RIGHT   1.8720E-01     15.79  3.7950E-02    -96.15
  120.00     40.00     -7.88   -25.91    -7.81      0.1254     14.23 RIGHT   1.3779E-01    -26.99  3.8959E-02    -55.14
  140.00     40.00     -9.28   -29.65    -9.25      0.0959     42.30 LEFT    8.9715E-02   -101.88  8.1785E-02    -90.88
  160.00     40.00    -11.28   -13.96    -9.40      0.7348     44.09 LEFT    8.4684E-02    169.26  8.3884E-02   -118.12
  180.00     40.00    -11.19   -13.39    -9.14      0.7763     -7.17 LEFT    9.6771E-02    141.25  7.5747E-02   -125.13
    0.00     60.00      6.23     4.94     8.64      0.8613    -22.62 RIGHT   7.0732E-01    122.92  6.3697E-01     26.85
   20.00     60.00      4.96     3.52     7.31      0.8472    -19.21 RIGHT   6.1371E-01    110.57  5.3920E-01     14.66
   40.00     60.00      0.19    -1.30     2.52      0.8428    -14.09 RIGHT   3.5659E-01     81.96  3.0678E-01    -12.68
   60.00     60.00     -3.66    -7.42    -2.13      0.6485    -25.00 RIGHT   2.1871E-01     74.33  1.6721E-01    -34.56
   80.00     60.00     -4.02   -13.72    -3.58      0.3275    -12.95 RIGHT   2.1647E-01     39.60  8.6395E-02    -81.18
  100.00     60.00     -5.56   -19.20    -5.38      0.2079     -3.33 RIGHT   1.8525E-01     -2.79  3.9989E-02   -107.75
  120.00     60.00     -8.20   -28.61    -8.16      0.0954     12.86 RIGHT   1.3354E-01    -45.59  3.3040E-02    -69.50
  140.00     60.00     -9.44   -31.97    -9.42      0.0748     46.29 LEFT    8.2229E-02   -117.43  8.5981E-02   -108.87
  160.00     60.00    -10.98   -14.90    -9.50      0.6367     50.88 LEFT    7.9646E-02    152.70  8.6835E-02   -141.87
  180.00     60.00    -11.19   -13.39    -9.14      0.7763     12.83 LEFT    9.6116E-02    125.64  7.6576E-02   -150.68
    0.00     80.00      6.23     4.94     8.64      0.8613    -42.62 RIGHT   6.7720E-01    104.26  6.6891E-01      5.77
   20.00     80.00      5.03     3.42     7.31      0.8308    -37.55 RIGHT   5.9067E-01     92.77  5.6345E-01     -7.44
   40.00     80.00      0.51    -1.88     2.49      0.7596    -23.36 RIGHT   3.6059E-01     64.96  2.9940E-01    -36.50
   60.00     80.00     -4.07    -6.95    -2.27      0.7181    -18.55 RIGHT   2.1478E-01     51.97  1.6550E-01    -49.52
   80.00     80.00     -4.19   -13.96    -3.75      0.3246    -16.39 RIGHT   2.0943E-01     21.17  9.1306E-02   -105.56
  100.00     80.00     -5.74   -19.35    -5.55      0.2086     -1.99 RIGHT   1.8166E-01    -22.26  3.8408E-02   -121.29
  120.00     80.00     -8.54   -29.76    -8.51      0.0869     10.47 RIGHT   1.2947E-01    -65.75  2.6443E-02    -91.83
  140.00     80.00     -9.79   -31.49    -9.76      0.0822     49.62 LEFT    7.4193E-02   -135.47  8.7049E-02   -125.94
  160.00     80.00    -10.76   -15.63    -9.54      0.5713     59.23 LEFT    7.2278E-02    134.38  9.2522E-02   -163.02
  180.00     80.00    -11.19   -13.39    -9.14      0.7763     32.83 LEFT    9.1227E-02    109.06  8.2339E-02   -174.06
    0.00    100.00      6.23     4.94     8.64      0.8613    -62.62 RIGHT   6.4364E-01     83.68  7.0126E-01    -13.30
   20.00    100.00      5.07     3.36     7.30      0.8212    -54.69 RIGHT   5.5809E-01     73.22  5.9536E-01    -27.38
   40.00    100.00      0.73    -2.30     2.48      0.7058    -33.34 RIGHT   3.5247E-01     47.95  3.0845E-01    -60.13
   60.00    100.00     -4.13    -7.14    -2.37      0.7071     -7.76 RIGHT   2.1764E-01     29.66  1.5601E-01    -65.75
   80.00    100.00     -4.44   -13.43    -3.92      0.3550    -19.64 RIGHT   2.0041E-01      1.39  1.0010E-01   -126.54
  100.00    100.00     -5.86   -19.99    -5.70      0.1965     -1.02 RIGHT   1.7922E-01    -42.67  3.5363E-02   -137.64
  120.00    100.00     -8.70   -27.41    -8.64      0.1159      8.40 RIGHT   1.2796E-01    -86.67  2.4025E-02   -125.77
  140.00    100.00    -10.24   -29.43   -10.19      0.1098     51.99 LEFT    6.7328E-02   -156.01  8.5632E-02   -143.11
  160.00    100.00    -10.66   -15.96    -9.54      0.5429     68.34 LEFT    6.4506E-02    112.58  9.8103E-02    178.56
  180.00    100.00    -11.19   -13.39    -9.14      0.7763     52.83 LEFT    8.3939E-02     89.99  8.9757E-02    166.15
    0.00    120.00      6.23     4.94     8.64      0.8613    -82.62 RIGHT   6.2296E-01     61.22  7.1969E-01    -30.97
   20.00    120.00      5.07     3.35     7.30      0.8210    -71.46 RIGHT   5.3018E-01     51.38  6.2009E-01    -45.44
   40.00    120.00      0.83    -2.48     2.49      0.6829    -43.60 RIGHT   3.3445E-01     29.74  3.2857E-01    -81.58
   60.00    120.00     -3.84    -7.87    -2.40      0.6290     -3.54 RIGHT   2.2581E-01      8.65  1.4262E-01    -84.74
   80.00    120.00     -4.70   -12.36    -4.02      0.4142    -21.37 RIGHT   1.9317E-01    -19.76  1.0865E-01   -143.93
  100.00    120.00     -5.87   -20.85    -5.73      0.1782     -0.49 RIGHT   1.7908E-01    -63.19  3.1947E-02   -155.87
  120.00    120.00     -8.68   -24.37    -8.57      0.1642      8.25 RIGHT   1.2822E-01   -106.99  2.8074E-02   -156.93
  140.00    120.00    -10.75   -27.08   -10.65      0.1526     53.13 LEFT    6.2513E-02   -178.90  8.2208E-02   -160.87
  160.00    120.00    -10.70   -15.82    -9.54      0.5547     77.84 LEFT    5.9694E-02     86.31  1.0103E-01    161.90
  180.00    120.00    -11.19   -13.39    -9.14      0.7763     72.83 LEFT    7.7495E-02     67.37  9.5376E-02    149.16
    0.00    140.00      6.23     4.94     8.64      0.8613     77.38 RIGHT   6.2632E-01     38.09  7.1677E-01    -48.25
   20.00    140.00      5.02     3.41     7.30      0.8302    -88.60 RIGHT   5.2104E-01     27.94  6.2746E-01    -62.59
   40.00    140.00      0.80    -2.41     2.50      0.6907    -54.13 RIGHT   3.1282E-01      9.29  3.4966E-01   -100.48
   60.00    140.00     -3.50    -8.65    -2.34      0.5526     -5.63 RIGHT   2.3446E-01    -10.53  1.3141E-01   -107.53
   80.00    140.00     -4.95   -11.35    -4.05      0.4789    -20.22 RIGHT   1.8965E-01    -41.67  1.1284E-01   -159.24
  100.00    140.00     -5.83   -21.92    -5.72      0.1568     -0.60 RIGHT   1.7986E-01    -83.26  2.8259E-02   -176.99
  120.00    140.00     -8.67   -22.62    -8.50      0.2006      9.76 RIGHT   1.2796E-01   -126.45  3.3800E-02   -177.81
  140.00    140.00    -11.24   -25.31   -11.07      0.1980     52.38 LEFT    6.0796E-02    156.63  7.7299E-02    179.71
  160.00    140.00    -10.92   -15.24    -9.56      0.6084     87.45 LEFT    6.0981E-02     58.19  1.0000E-01    145.55
  180.00    140.00    -11.19   -13.39    -9.14      0.7763    -87.17 LEFT    7.5422E-02     42.03  9.7024E-02    133.47
    0.00    160.00      6.23     4.94     8.64      0.8613     57.38 RIGHT   6.5184E-01     16.05  6.9365E-01    -66.20
   20.00    160.00      4.95     3.50     7.30      0.8464     73.05 RIGHT   5.3554E-01      4.73  6.1479E-01    -79.93
   40.00    160.00      0.63    -2.12     2.48      0.7286    -65.13 RIGHT   2.9665E-01    -13.83  3.6257E-01   -117.64
   60.00    160.00     -3.28    -9.14    -2.28      0.5096    -10.56 RIGHT   2.3812E-01    -28.46  1.2863E-01   -133.12
   80.00    160.00     -5.11   -10.89    -4.09      0.5142    -16.17 RIGHT   1.8970E-01    -63.77  1.1075E-01   -174.71
  100.00    160.00     -5.82   -22.73    -5.73      0.1427     -1.64 RIGHT   1.8006E-01   -103.09  2.6198E-02    155.81
  120.00    160.00     -8.73   -22.10    -8.54      0.2146     11.74 RIGHT   1.2622E-01   -145.61  3.7665E-02    165.92
  140.00    160.00    -11.46   -24.88   -11.27      0.2134     49.99 LEFT    6.2402E-02    132.94  7.3185E-02    157.36
  160.00    160.00    -11.30   -14.36    -9.55      0.7030    -83.19 LEFT    6.7882E-02     33.11  9.5527E-02    127.95
  180.00    160.00    -11.19   -13.39    -9.14      0.7763    -67.17 LEFT    7.9012E-02     17.20  9.4123E-02    117.57
    0.00    180.00      6.23     4.94     8.64      0.8613     37.38 RIGHT   6.8605E-01     -3.99  6.5983E-01    -85.76
   20.00    180.00      4.87     3.61     7.30      0.8643     52.56 RIGHT   5.6553E-01    -16.60  5.8730E-01    -98.56
   40.00    180.00      0.32    -1.66     2.45      0.7958    -77.32 RIGHT   2.9465E-01    -38.60  3.6196E-01   -134.23
   60.00    180.00     -3.28    -9.13    -2.27      0.5099    -16.44 RIGHT   2.3407E-01    -46.34  1.3637E-01   -157.85
   80.00    180.00     -5.10   -11.14    -4.13      0.4985    -11.87 RIGHT   1.9261E-01    -85.63  1.0363E-01    167.49
  100.00    180.00     -5.84   -22.20    -5.74      0.1520     -3.18 RIGHT   1.7948E-01   -123.01  2.9046E-02    127.42
  120.00    180.00     -8.89   -22.43    -8.71      0.2105     13.44 RIGHT   1.2311E-01   -164.92  3.9152E-02    150.84
  140.00    180.00    -11.23   -25.88   -11.09      0.1853     48.67 LEFT    6.5156E-02    111.81  7.3454E-02    132.96
  160.00    180.00    -11.77   -13.35    -9.48      0.8342    -74.87 LEFT    7.6831E-02     12.59  8.9819E-02    107.84
  180.00    180.00    -11.19   -13.39    -9.14      0.7763    -47.17 LEFT    8.6078E-02     -4.38  8.7708E-02     99.93
    0.00    200.00      6.23     4.94     8.64      0.8613     17.38 RIGHT   7.1287E-01    -22.25  6.3076E-01   -107.37
   20.00    200.00      4.83     3.68     7.30      0.8760     29.51 RIGHT   5.9615E-01    -35.74  5.5706E-01   -119.24
   40.00    200.00     -0.10    -1.13     2.42      0.8883     85.82 RIGHT   3.0917E-01    -62.56  3.4760E-01   -151.57
   60.00    200.00     -3.49    -8.57    -2.32      0.5569    -21.91 RIGHT   2.2393E-01    -65.45  1.5012E-01   -178.67
   80.00    200.00     -4.91   -11.86    -4.11      0.4489    -10.27 RIGHT   1.9749E-01   -106.78  9.5292E-02    145.89
  100.00    200.00     -5.89   -20.42    -5.74      0.1878     -3.89 RIGHT   1.7822E-01   -143.01  3.5590E-02    107.81
  120.00    200.00     -9.19   -23.59    -9.03      0.1905     14.58 RIGHT   1.1842E-01    175.30  3.8128E-02    136.23
  140.00    200.00    -10.78   -26.99   -10.68      0.1547     50.30 LEFT    6.6114E-02     92.31  7.8940E-02    110.19
  160.00    200.00    -12.24   -12.39    -9.30      0.9825     81.39 LEFT    8.4530E-02     -4.79  8.5969E-02     84.91
  180.00    200.00    -11.19   -13.39    -9.14      0.7763    -27.17 LEFT    9.2964E-02    -22.60  8.0373E-02     79.14
    0.00    220.00      6.23     4.94     8.64      0.8613     -2.62 RIGHT   7.2103E-01    -39.59  6.2141E-01   -130.38
   20.00    220.00      4.85     3.69     7.32      0.8754      5.51 RIGHT   6.1433E-01    -53.39  5.3913E-01   -141.93
   40.00    220.00     -0.34    -0.83     2.43      0.9457     31.48 RIGHT   3.3339E-01    -83.86  3.2504E-01   -171.01
   60.00    220.00     -3.89    -7.67    -2.37      0.6469    -24.85 RIGHT   2.1298E-01    -86.67  1.6233E-01    164.41
   80.00    220.00     -4.65   -12.63    -4.00      0.3990    -11.60 RIGHT   2.0262E-01   -126.93  9.0605E-02    120.53
  100.00    220.00     -6.01   -18.79    -5.79      0.2298     -2.67 RIGHT   1.7592E-01   -163.04  4.1242E-02     96.11
  120.00    220.00     -9.65   -25.81    -9.54      0.1556     14.46 RIGHT   1.1233E-01    154.28  3.3802E-02    120.88
  140.00    220.00    -10.41   -26.25   -10.30      0.1613     53.67 LEFT    6.4413E-02     71.93  8.6160E-02     91.07
  160.00    220.00    -11.43   -12.79    -9.05      0.8553     39.47 LEFT    8.9102E-02    -20.72  8.6491E-02     60.52
  180.00    220.00    -11.19   -13.39    -9.14      0.7763     -7.17 LEFT    9.6771E-02    -38.75  7.5747E-02     54.87
    0.00    240.00      6.23     4.94     8.64      0.8613    -22.62 RIGHT   7.0732E-01    -57.08  6.3697E-01   -153.15
   20.00    240.00      4.92     3.65     7.34      0.8647    -16.83 RIGHT   6.1331E-01    -70.61  5.4356E-01   -165.23
   40.00    240.00      0.11    -1.25     2.49      0.8559     -3.15 RIGHT   3.5608E-01   -102.43  3.0505E-01    166.59
   60.00    240.00     -4.37    -6.85    -2.42      0.7516    -19.82 RIGHT   2.0746E-01   -109.86  1.6690E-01    149.68
   80.00    240.00     -4.41   -13.01    -3.85      0.3713    -14.69 RIGHT   2.0588E-01   -146.37  9.3134E-02     93.96
  100.00    240.00     -6.19   -18.28    -5.93      0.2484      0.29 RIGHT   1.7262E-01    176.53  4.2894E-02     87.63
  120.00    240.00    -10.12   -28.29   -10.06      0.1235     12.08 RIGHT   1.0733E-01    131.01  2.6507E-02     99.51
  140.00    240.00    -10.27   -23.74   -10.08      0.2120     56.73 LEFT    6.2207E-02     48.68  9.1095E-02     74.51
  160.00    240.00    -10.69   -13.21    -8.76      0.7488     47.17 LEFT    8.9806E-02    -36.53  9.1742E-02     37.17
  180.00    240.00    -11.19   -13.39    -9.14      0.7763     12.83 LEFT    9.6116E-02    -54.36  7.6576E-02     29.32
    0.00    260.00      6.23     4.94     8.64      0.8613    -42.62 RIGHT   6.7720E-01    -75.74  6.6891E-01   -174.23
   20.00    260.00      5.00     3.61     7.37      0.8521    -36.77 RIGHT   5.9415E-01    -88.53  5.6800E-01    172.70
   40.00    260.00      0.56    -1.67     2.59      0.7739    -17.79 RIGHT   3.6811E-01   -119.40  2.9931E-01    142.02
   60.00    260.00     -4.44    -6.79    -2.45      0.7631     -2.49 RIGHT   2.1100E-01   -133.54  1.6118E-01    135.09
   80.00    260.00     -4.26   -12.74    -3.68      0.3766    -18.29 RIGHT   2.0632E-01   -165.86  1.0260E-01     69.97
  100.00    260.00     -6.31   -19.15    -6.09      0.2280      3.28 RIGHT   1.6994E-01    155.20  3.9946E-02     78.57
  120.00    260.00    -10.20   -27.47   -10.12      0.1369      8.18 RIGHT   1.0768E-01    106.09  2.1380E-02     61.38
  140.00    260.00    -10.34   -21.03    -9.99      0.2921     57.86 LEFT    6.2771E-02     23.27  9.2102E-02     58.60
  160.00    260.00    -10.17   -13.49    -8.51      0.6824     55.85 LEFT    8.6941E-02    -53.42  9.9574E-02     16.58
  180.00    260.00    -11.19   -13.39    -9.14      0.7763     32.83 LEFT    9.1227E-02    -70.94  8.2339E-02      5.94
    0.00    280.00      6.23     4.94     8.64      0.8613    -62.62 RIGHT   6.4364E-01    -96.32  7.0126E-01    166.70
   20.00    280.00      5.05     3.58     7.39      0.8442    -55.11 RIGHT   5.6555E-01   -108.12  5.9935E-01    152.81
   40.00    280.00      0.88    -1.93     2.71      0.7232    -29.69 RIGHT   3.6602E-01   -136.14  3.1164E-01    118.02
   60.00    280.00     -3.96    -7.65    -2.41      0.6542      5.05 RIGHT   2.2258E-01   -155.84  1.4668E-01    118.55
   80.00    280.00     -4.19   -11.82    -3.50      0.4151    -21.00 RIGHT   2.0544E-01    174.04  1.1470E-01     50.34
  100.00    280.00     -6.28   -21.07    -6.13      0.1820      4.50 RIGHT   1.7038E-01    133.29  3.3785E-02     65.86
  120.00    280.00     -9.68   -23.66    -9.51      0.2000      6.40 RIGHT   1.1474E-01     82.44  2.6306E-02     20.44
  140.00    280.00    -10.52   -19.01    -9.94      0.3762     55.98 LEFT    6.7152E-02     -1.33  8.9663E-02     42.05
  160.00    280.00     -9.90   -13.58    -8.35      0.6551     64.74 LEFT    8.2180E-02    -72.59  1.0655E-01     -1.18
  180.00    280.00    -11.19   -13.39    -9.14      0.7763     52.83 LEFT    8.3939E-02    -90.01  8.9757E-02    -13.85
    0.00    300.00      6.23     4.94     8.64      0.8613    -82.62 RIGHT   6.2296E-01   -118.78  7.1969E-01    149.03
   20.00    300.00      5.06     3.59     7.40      0.8443    -72.87 RIGHT   5.4156E-01   -129.77  6.2263E-01    134.76
   40.00    300.00      1.05    -1.98     2.80      0.7056    -40.52 RIGHT   3.5250E-01   -153.88  3.3454E-01     96.75
   60.00    300.00     -3.41    -8.73    -2.29      0.5419      2.78 RIGHT   2.3747E-01   -175.76  1.2916E-01     97.85
   80.00    300.00     -4.19   -10.72    -3.32      0.4713    -21.25 RIGHT   2.0591E-01    153.53  1.2376E-01     34.39
  100.00    300.00     -6.09   -23.28    -6.01      0.1382      3.75 RIGHT   1.7422E-01    111.97  2.6652E-02     46.84
  120.00    300.00     -8.95   -20.86    -8.68      0.2539      8.17 RIGHT   1.2442E-01     61.92  3.6266E-02     -0.67
  140.00    300.00    -10.66   -17.90    -9.91      0.4344     50.77 LEFT    7.3895E-02    -23.36  8.4771E-02     24.18
  160.00    300.00     -9.94   -13.45    -8.34      0.6673     73.50 LEFT    7.8484E-02    -94.45  1.0958E-01    -17.21
  180.00    300.00    -11.19   -13.39    -9.14      0.7763     72.83 LEFT    7.7495E-02   -112.63  9.5376E-02    -30.84
    0.00    320.00      6.23     4.94     8.64      0.8613     77.38 RIGHT   6.2632E-01   -141.91  7.1677E-01    131.75
   20.00    320.00      5.03     3.64     7.40      0.8521     88.96 RIGHT   5.3522E-01   -152.75  6.2803E-01    117.58
   40.00    320.00      1.04    -1.82     2.85      0.7190    -50.64 RIGHT   3.3464E-01   -173.47  3.5616E-01     78.30
   60.00    320.00     -2.98    -9.58    -2.12      0.4675     -2.73 RIGHT   2.4964E-01    166.48  1.1727E-01     71.94
   80.00    320.00     -4.23    -9.99    -3.20      0.5150    -18.22 RIGHT   2.0846E-01    133.29  1.2561E-01     20.32
  100.00    320.00     -5.87   -25.02    -5.82      0.1103      1.88 RIGHT   1.7887E-01     91.87  2.0578E-02     18.20
  120.00    320.00     -8.36   -19.96    -8.07      0.2631     11.37 RIGHT   1.3197E-01     43.64  4.3649E-02    -11.99
  140.00    320.00    -10.61   -17.87    -9.86      0.4337     43.37 LEFT    8.1487E-02    -42.83  7.8380E-02      4.11
  160.00    320.00    -10.28   -13.13    -8.46      0.7197     81.52 LEFT    7.8373E-02   -117.47  1.0724E-01    -33.04
  180.00    320.00    -11.19   -13.39    -9.14      0.7763    -87.17 LEFT    7.5422E-02   -137.97  9.7024E-02    -46.53
    0.00    340.00      6.23     4.94     8.64      0.8613     57.38 RIGHT   6.5184E-01   -163.95  6.9365E-01    113.80
   20.00    340.00      4.96     3.70     7.39      0.8646     69.36 RIGHT   5.5010E-01   -175.33  6.1345E-01    100.17
   40.00    340.00      0.85    -1.51     2.84      0.7615    -60.22 RIGHT   3.2101E-01    164.95  3.6762E-01     61.56
   60.00    340.00     -2.73    -9.94    -1.98      0.4360     -9.12 RIGHT   2.5432E-01    149.87  1.1787E-01     43.66
   80.00    340.00     -4.24    -9.98    -3.21      0.5163    -13.25 RIGHT   2.1178E-01    113.60  1.1929E-01      6.02
  100.00    340.00     -5.72   -25.64    -5.68      0.1010     -0.56 RIGHT   1.8214E-01     72.50  1.8480E-02    -22.96
  120.00    340.00     -8.00   -20.54    -7.77      0.2361     13.76 RIGHT   1.3625E-01     25.97  4.6271E-02    -21.29
  140.00    340.00    -10.27   -19.15    -9.74      0.3596     37.63 LEFT    8.8693E-02    -59.82  7.2700E-02    -19.31
  160.00    340.00    -10.89   -12.71    -8.70      0.8108     86.78 LEFT    8.1511E-02   -138.96  1.0040E-01    -50.32
  180.00    340.00    -11.19   -13.39    -9.14      0.7763    -67.17 LEFT    7.9012E-02   -162.80  9.4123E-02    -62.43
    0.00    360.00      6.23     4.94     8.64      0.8613     37.38 RIGHT   6.8605E-01    176.01  6.5983E-01     94.24
   20.00    360.00      4.90     3.74     7.37      0.8752     47.51 RIGHT   5.7789E-01    163.87  5.8463E-01     81.46
   40.00    360.00      0.49    -1.11     2.77      0.8316    -69.20 RIGHT   3.1823E-01    142.30  3.6503E-01     45.28
   60.00    360.00     -2.71    -9.76    -1.93      0.4442    -15.43 RIGHT   2.5020E-01    133.14  1.2986E-01     18.28
   80.00    360.00     -4.19   -10.69    -3.31      0.4730     -9.53 RIGHT   2.1494E-01     94.34  1.0754E-01    -10.66
  100.00    360.00     -5.60   -24.38    -5.54      0.1151     -3.02 RIGHT   1.8442E-01     53.27  2.3352E-02    -60.97
  120.00    360.00     -7.81   -21.95    -7.65      0.1965     14.70 RIGHT   1.3866E-01      8.24  4.5378E-02    -31.54
  140.00    360.00     -9.78   -21.82    -9.51      0.2500     36.29 LEFT    9.3570E-02    -74.58  7.1391E-02    -45.38
  160.00    360.00    -11.61   -12.39    -8.97      0.9141     74.96 LEFT    8.5102E-02   -157.78  9.1976E-02    -70.36
  180.00    360.00    -11.19   -13.39    -9.14      0.7763    -47.17 LEFT    8.6078E-02    175.62  8.7708E-02    -80.07



  DATA CARD No:   4 EN   0     0     0     0  0.00000E+00  0.00000E+00  0.00000E+00  0.00000E+00  0.00000E+00  0.00000E+00

  TOTAL RUN TIME: 280 msec