                   ****************************************
                     MINI-NUMERICAL ELECTROMAGNETICS CODE
                                   MININEC
                       2024-08-22              23:02:49
                   ****************************************
 
FREQUENCY (MHZ): 299.8
    WAVE LENGTH =  1 METERS
 
ENVIRONMENT (+1 FOR FREE SPACE, -1 FOR GROUND PLANE): -1
 NUMBER OF MEDIA (0 FOR PERFECTLY CONDUCTING GROUND):  0
 
NO. OF WIRES: 3
 
WIRE NO.1
            COORDINATES                                 END         NO. OF
   X             Y             Z          RADIUS     CONNECTION     SEGMENTS
 0             0             0                          -1
 0             0             .07958        .004          0             8
 
WIRE NO.2
            COORDINATES                                 END         NO. OF
   X             Y             Z          RADIUS     CONNECTION     SEGMENTS
 0            -.170423       .07958                      0
 0             0             .07958        .004         -1             17
 
WIRE NO.3
            COORDINATES                                 END         NO. OF
   X             Y             Z          RADIUS     CONNECTION     SEGMENTS
 0             .170423       .07958                      0
 0             0             .07958        .004         -1             17
 
                  **** ANTENNA GEOMETRY ****
 
WIRE NO.  1 COORDINATES                                 CONNECTION PULSE
X             Y             Z             RADIUS        END1 END2  NO.
 0             0             0             .004          -1    1    1
 0             0             .0099475      .004           1    1    2
 0             0             .019895       .004           1    1    3
 0             0             .0298425      .004           1    1    4
 0             0             .03979        .004           1    1    5
 0             0             .0497375      .004           1    1    6
 0             0             .059685       .004           1    1    7
 0             0             .0696325      .004           1    0    8
 
WIRE NO.  2 COORDINATES                                 CONNECTION PULSE
X             Y             Z             RADIUS        END1 END2  NO.
 0            -.16039812     .07958        .004           0    2    9
 0            -.15037324     .07958        .004           2    2   10
 0            -.14034835     .07958        .004           2    2   11
 0            -.13032347     .07958        .004           2    2   12
 0            -.12029859     .07958        .004           2    2   13
 0            -.11027371     .07958        .004           2    2   14
 0            -.10024882     .07958        .004           2    2   15
 0            -.09022394     .07958        .004           2    2   16
 0            -.08019906     .07958        .004           2    2   17
 0            -.07017418     .07958        .004           2    2   18
 0            -.06014929     .07958        .004           2    2   19
 0            -.05012441     .07958        .004           2    2   20
 0            -.04009953     .07958        .004           2    2   21
 0            -.03007465     .07958        .004           2    2   22
 0            -.02004976     .07958        .004           2    2   23
 0            -.01002488     .07958        .004           2    2   24
 0             0             .07958        .004           2   -1   25
 
WIRE NO.  3 COORDINATES                                 CONNECTION PULSE
X             Y             Z             RADIUS        END1 END2  NO.
 0             .16039812     .07958        .004           0    3   26
 0             .15037324     .07958        .004           3    3   27
 0             .14034835     .07958        .004           3    3   28
 0             .13032347     .07958        .004           3    3   29
 0             .12029859     .07958        .004           3    3   30
 0             .11027371     .07958        .004           3    3   31
 0             .10024882     .07958        .004           3    3   32
 0             .09022394     .07958        .004           3    3   33
 0             .08019906     .07958        .004           3    3   34
 0             .07017418     .07958        .004           3    3   35
 0             .06014929     .07958        .004           3    3   36
 0             .05012441     .07958        .004           3    3   37
 0             .04009953     .07958        .004           3    3   38
 0             .03007465     .07958        .004           3    3   39
 0             .02004976     .07958        .004           3    3   40
 0             .01002488     .07958        .004           3    3   41
 0             0             .07958        .004           3   -1   42
 
NO. OF SOURCES :  1
PULSE NO., VOLTAGE MAGNITUDE, PHASE (DEGREES):  1, 1, 0
NUMBER OF LOADS 0
 
FILL MATRIX  : 0:00
FACTOR MATRIX: 0:00
 
********************    SOURCE DATA     ********************
PULSE  1      VOLTAGE = ( 1, 0J)
              CURRENT = ( .00829025,-.02546582J)
              IMPEDANCE = ( 11.558599, 35.505488J)
              POWER =  .00414512 WATTS
 
********************    CURRENT DATA    ********************
 
WIRE NO. 1:
PULSE         REAL          IMAGINARY     MAGNITUDE     PHASE
 NO.          (AMPS)        (AMPS)        (AMPS)        (DEGREES)
 1             .00829025    -.02546582     .02678127    -71.96765
 2             .00828338    -.02679494     .02804609    -72.821549
 3             .00826292    -.02709503     .02832696    -73.040363
 4             .00822927    -.02731845     .02853101    -73.235863
 5             .00818325    -.02741123     .02860666    -73.377717
 6             .00812616    -.02740362     .02858309    -73.483014
 7             .00806056    -.02730967     .02847439    -73.555831
 8             .00798906    -.02714089     .02829227    -73.597939
J              .00794486    -.02701674     .0281607     -73.612886
 
WIRE NO. 2:
PULSE         REAL          IMAGINARY     MAGNITUDE     PHASE
 NO.          (AMPS)        (AMPS)        (AMPS)        (DEGREES)
E              0             0             0             0
 9            -5.450280E-04  .00185765     .00193595     106.35153
 10           -8.642992E-04  .00294201     .00306634     106.37165
 11           -.00117403     .00399188     .00416094     106.38885
 12           -.00146354     .00497111     .00518208     106.40494
 13           -.00173908     .00590132     .00615224     106.4199
 14           -.00200189     .00678709     .00707616     106.43373
 15           -.00225254     .00763068     .00795621     106.44633
 16           -.00249103     .00843253     .00879277     106.45753
 17           -.0027171      .00919217     .00958533     106.46709
 18           -.00293028     .00990858     .01033278     106.47463
 19           -.00312999     .01058046     .01103372     106.47966
 20           -.00331553     .01120633     .01168651     106.48149
 21           -.00348607     .01178448     .01228929     106.47919
 22           -.00364059     .01231289     .01283983     106.47151
 23           -.0037774      .01278779     .01333403     106.45666
 24           -.00389552     .01320764     .01377014     106.43315
J             -.00397243     .01350837     .01408035     106.38711
 
WIRE NO. 3:
PULSE         REAL          IMAGINARY     MAGNITUDE     PHASE
 NO.          (AMPS)        (AMPS)        (AMPS)        (DEGREES)
E              0             0             0             0
 26           -5.450280E-04  .00185765     .00193595     106.35153
 27           -8.642992E-04  .00294201     .00306634     106.37165
 28           -.00117403     .00399188     .00416094     106.38885
 29           -.00146354     .00497111     .00518208     106.40494
 30           -.00173908     .00590132     .00615224     106.4199
 31           -.00200189     .00678709     .00707616     106.43373
 32           -.00225254     .00763068     .00795621     106.44633
 33           -.00249103     .00843253     .00879277     106.45753
 34           -.0027171      .00919217     .00958533     106.46709
 35           -.00293028     .00990858     .01033278     106.47463
 36           -.00312999     .01058046     .01103372     106.47966
 37           -.00331553     .01120633     .01168651     106.48149
 38           -.00348607     .01178448     .01228929     106.47919
 39           -.00364059     .01231289     .01283983     106.47151
 40           -.0037774      .01278779     .01333403     106.45666
 41           -.00389552     .01320764     .01377014     106.43315
J             -.00397243     .01350837     .01408035     106.38711
 
********************     FAR FIELD      ********************
 
ZENITH ANGLE : INITIAL,INCREMENT,NUMBER:  0, 10, 10
AZIMUTH ANGLE: INITIAL,INCREMENT,NUMBER:  0, 90, 2
 
 
FILENAME (NAME.OUT): TANT.GNN
 
********************    PATTERN DATA    ********************
ZENITH        AZIMUTH       VERTICAL      HORIZONTAL    TOTAL
 ANGLE         ANGLE        PATTERN (DB)  PATTERN (DB)  PATTERN (DB)
 0             0            -999          -279.4556     -279.4556
 10            0            -10.949031    -279.76967    -10.949031
 20            0            -5.0290425    -280.10073    -5.0290425
 30            0            -1.6812647    -280.77441    -1.6812647
 40            0             .56111999    -281.58813     .56111999
 50            0             2.1489683    -283.52265     2.1489683
 60            0             3.2745773    -285.47036     3.2745773
 70            0             4.0325308    -288.58294     4.0325308
 80            0             4.4716686    -294.03821     4.4716686
 90            0             4.6156811    -999           4.6156811
 0             90           -279.4556     -999          -279.4556
 10            90           -9.0215603    -999          -9.0215603
 20            90           -3.2667227    -999          -3.2667227
 30            90           -.17460425    -999          -.17460425
 40            90            1.7496651    -999           1.7496651
 50            90            2.9932959    -999           2.9932959
 60            90            3.7898488    -999           3.7898488
 70            90            4.2753573    -999           4.2753573
 80            90            4.5345593    -999           4.5345593
 90            90            4.6156811    -999           4.6156811
